Program Version,EnergyPlus, Version 22.2.0-aa78da9668, YMD=2023.06.14 15:05
! <Version>, Version ID
 Version, 22.2
! <Timesteps per Hour>, #TimeSteps, Minutes per TimeStep {minutes}
 Timesteps per Hour,  1, 60
! <System Convergence Limits>, Minimum System TimeStep {minutes}, Max HVAC Iterations, Minimum Plant Iterations, Maximum Plant Iterations
 System Convergence Limits, 1, 20, 2, 8
! <Simulation Control>, Do Zone Sizing, Do System Sizing, Do Plant Sizing, Do Design Days, Do Weather Simulation, Do HVAC Sizing Simulation
 Simulation Control, Yes, Yes, Yes, No, Yes, No
! <Performance Precision Tradeoffs>, Use Coil Direct Simulation, Zone Radiant Exchange Algorithm, Override Mode, Number of Timestep In Hour, Force Euler Method, Minimum Number of Warmup Days, Force Suppress All Begin Environment Resets, Minimum System Timestep, MaxZoneTempDiff, MaxAllowedDelTemp
 Performance Precision Tradeoffs, No, ScriptF, Normal, 1, No, 1, No, 1.0, 0.300, 2.0000E-003
! <Output Reporting Tolerances>, Tolerance for Time Heating Setpoint Not Met, Tolerance for Zone Cooling Setpoint Not Met Time
 Output Reporting Tolerances, 0.556, 0.556, 
! <Site:GroundTemperature:BuildingSurface>,Jan{C},Feb{C},Mar{C},Apr{C},May{C},Jun{C},Jul{C},Aug{C},Sep{C},Oct{C},Nov{C},Dec{C}
 Site:GroundTemperature:BuildingSurface,  18.00,  18.00,  18.00,  18.00,  18.00,  18.00,  18.00,  18.00,  18.00,  18.00,  18.00,  18.00
! <Site:GroundTemperature:FCfactorMethod>,Jan{C},Feb{C},Mar{C},Apr{C},May{C},Jun{C},Jul{C},Aug{C},Sep{C},Oct{C},Nov{C},Dec{C}
 Site:GroundTemperature:FCfactorMethod,  -3.10, -17.70, -19.30, -17.60, -15.40, -10.30,   0.70,  10.60,  16.00,  16.90,  14.20,   6.70
! <Site:GroundTemperature:Shallow>,Jan{C},Feb{C},Mar{C},Apr{C},May{C},Jun{C},Jul{C},Aug{C},Sep{C},Oct{C},Nov{C},Dec{C}
 Site:GroundTemperature:Shallow,  13.00,  13.00,  13.00,  13.00,  13.00,  13.00,  13.00,  13.00,  13.00,  13.00,  13.00,  13.00
! <Site:GroundTemperature:Deep>,Jan{C},Feb{C},Mar{C},Apr{C},May{C},Jun{C},Jul{C},Aug{C},Sep{C},Oct{C},Nov{C},Dec{C}
 Site:GroundTemperature:Deep,  16.00,  16.00,  16.00,  16.00,  16.00,  16.00,  16.00,  16.00,  16.00,  16.00,  16.00,  16.00
! <Site:GroundReflectance>,Jan{dimensionless},Feb{dimensionless},Mar{dimensionless},Apr{dimensionless},May{dimensionless},Jun{dimensionless},Jul{dimensionless},Aug{dimensionless},Sep{dimensionless},Oct{dimensionless},Nov{dimensionless},Dec{dimensionless}
 Site:GroundReflectance,  0.20,  0.20,  0.20,  0.20,  0.20,  0.20,  0.20,  0.20,  0.20,  0.20,  0.20,  0.20
! <Site:GroundReflectance:SnowModifier>, Normal, Daylighting {dimensionless}
 Site:GroundReflectance:SnowModifier,   1.000,   1.000
! <Site:GroundReflectance:Snow>,Jan{dimensionless},Feb{dimensionless},Mar{dimensionless},Apr{dimensionless},May{dimensionless},Jun{dimensionless},Jul{dimensionless},Aug{dimensionless},Sep{dimensionless},Oct{dimensionless},Nov{dimensionless},Dec{dimensionless}
 Site:GroundReflectance:Snow,  0.20,  0.20,  0.20,  0.20,  0.20,  0.20,  0.20,  0.20,  0.20,  0.20,  0.20,  0.20
! <Site:GroundReflectance:Snow:Daylighting>,Jan{dimensionless},Feb{dimensionless},Mar{dimensionless},Apr{dimensionless},May{dimensionless},Jun{dimensionless},Jul{dimensionless},Aug{dimensionless},Sep{dimensionless},Oct{dimensionless},Nov{dimensionless},Dec{dimensionless}
 Site:GroundReflectance:Snow:Daylighting,  0.20,  0.20,  0.20,  0.20,  0.20,  0.20,  0.20,  0.20,  0.20,  0.20,  0.20,  0.20
! <Environment:Weather Station>,Wind Sensor Height Above Ground {m},Wind Speed Profile Exponent {},Wind Speed Profile Boundary Layer Thickness {m},Air Temperature Sensor Height Above Ground {m},Wind Speed Modifier Coefficient-Internal,Temperature Modifier Coefficient-Internal
Environment:Weather Station,10.000,0.140,270.000,1.500,1.586,9.750E-003
! <Site:Location>, Location Name, Latitude {N+/S- Deg}, Longitude {E+/W- Deg},  Time Zone Number {GMT+/-}, Elevation {m},  Standard Pressure at Elevation {Pa}, Standard RhoAir at Elevation
Site:Location,Kodiak Airport AK USA TMY3 WMO#=703500,57.75,-152.50,-9.00,5.00,101265,1.2036
! <Site Water Mains Temperature Information>,Calculation Method{},Water Mains Temperature Schedule Name{},Annual Average Outdoor Air Temperature{C},Maximum Difference In Monthly Average Outdoor Air Temperatures{deltaC},Fixed Default Water Mains Temperature{C}
Site Water Mains Temperature Information,Correlation,NA,-1.53,36.20,NA
! <Building Information>, Building Name,North Axis {deg},Terrain,  Loads Convergence Tolerance Value,Temperature Convergence Tolerance Value,  Solar Distribution,Maximum Number of Warmup Days,Minimum Number of Warmup Days
 Building Information,90.1-2019|MediumOffice,0.000,City,4.00000E-002,0.20000,FullInteriorAndExterior,25,6
! <Inside Convection Algorithm>, Algorithm {Simple | TARP | CeilingDiffuser | AdaptiveConvectionAlgorithm}
Inside Convection Algorithm,TARP
! <Outside Convection Algorithm>, Algorithm {SimpleCombined | TARP | MoWitt | DOE-2 | AdaptiveConvectionAlgorithm}
Outside Convection Algorithm,TARP
! <Sky Radiance Distribution>, Value {Anisotropic}
Sky Radiance Distribution,Anisotropic
! <Zone Air Solution Algorithm>, Value {ThirdOrderBackwardDifference | AnalyticalSolution | EulerMethod}
 Zone Air Solution Algorithm, ThirdOrderBackwardDifference
! <Zone Air Carbon Dioxide Balance Simulation>, Simulation {Yes/No}, Carbon Dioxide Concentration
 Zone Air Carbon Dioxide Balance Simulation, No,N/A
! <Zone Air Generic Contaminant Balance Simulation>, Simulation {Yes/No}, Generic Contaminant Concentration
 Zone Air Generic Contaminant Balance Simulation, No,N/A
! <Zone Air Mass Flow Balance Simulation>, Enforce Mass Balance, Adjust Zone Mixing and Return {AdjustMixingOnly | AdjustReturnOnly | AdjustMixingThenReturn | AdjustReturnThenMixing | None}, Adjust Zone Infiltration {AddInfiltration | AdjustInfiltration | None}, Infiltration Zones {MixingSourceZonesOnly | AllZones}
 Zone Air Mass Flow Balance Simulation, No,N/A,N/A,N/A
! <HVACSystemRootFindingAlgorithm>, Value {RegulaFalsi | Bisection | BisectionThenRegulaFalsi | RegulaFalsiThenBisection}
 HVACSystemRootFindingAlgorithm, RegulaFalsi
! <Environment:Site Atmospheric Variation>,Wind Speed Profile Exponent {},Wind Speed Profile Boundary Layer Thickness {m},Air Temperature Gradient Coefficient {K/m}
Environment:Site Atmospheric Variation,0.330,460.000,6.500000E-003
! <Surface Geometry>,Starting Corner,Vertex Input Direction,Coordinate System,Daylight Reference Point Coordinate System,Rectangular (Simple) Surface Coordinate System
 Surface Geometry,UpperLeftCorner,Counterclockwise,RelativeCoordinateSystem,RelativeCoordinateSystem,RelativeToZoneOrigin
! <Surface Heat Transfer Algorithm>, Value {CTF - ConductionTransferFunction | EMPD - MoisturePenetrationDepthConductionTransferFunction | CondFD - ConductionFiniteDifference | HAMT - CombinedHeatAndMoistureFiniteElement} - Description,Inside Surface Max Temperature Limit{C}, Surface Convection Coefficient Lower Limit {W/m2-K}, Surface Convection Coefficient Upper Limit {W/m2-K}
Surface Heat Transfer Algorithm, CTF - ConductionTransferFunction,200,0.10,1000.0
! <Shading Summary>, Number of Fixed Detached Shades, Number of Building Detached Shades, Number of Attached Shades
 Shading Summary,0,0,0
! <Zone Summary>, Number of Zones, Number of Zone Surfaces, Number of SubSurfaces
 Zone Summary,9,75,12
! <Zone Information>,Zone Name,North Axis {deg},Origin X-Coordinate {m},Origin Y-Coordinate {m},Origin Z-Coordinate {m},Centroid X-Coordinate {m},Centroid Y-Coordinate {m},Centroid Z-Coordinate {m},Type,Zone Multiplier,Zone List Multiplier,Minimum X {m},Maximum X {m},Minimum Y {m},Maximum Y {m},Minimum Z {m},Maximum Z {m},Ceiling Height {m},Volume {m3},Zone Inside Convection Algorithm {Simple-Detailed-CeilingDiffuser-TrombeWall},Zone Outside Convection Algorithm {Simple-Detailed-Tarp-MoWitt-DOE-2-BLAST}, Floor Area {m2},Exterior Gross Wall Area {m2},Exterior Net Wall Area {m2},Exterior Window Area {m2}, Number of Surfaces, Number of SubSurfaces, Number of Shading SubSurfaces,  Part of Total Building Area
 Zone Information, ZONE OFFICE WHOLEBUILDING - MD OFFICE A  - STORY GROUND,0.0,-21.65,-17.48,0.00,1.72E-014,-15.20,4.57,1,1,1,-21.65,21.65,-17.48,-12.91,0.00,9.14,9.14,1810.41,TARP,TARP,197.99,395.98,316.78,79.20,6,1,0,Yes
 Zone Information, ZONE OFFICE WHOLEBUILDING - MD OFFICE A END_A - STORY GROUND,0.0,-26.22,-17.48,0.00,-23.94,-15.20,4.57,1,1,1,-26.22,-21.65,-17.48,-12.91,0.00,9.14,9.14,191.14,TARP,TARP,20.90,83.61,66.89,16.72,6,2,0,Yes
 Zone Information, ZONE OFFICE WHOLEBUILDING - MD OFFICE A END_B - STORY GROUND,0.0,21.65,-17.48,0.00,23.94,-15.20,4.57,1,1,1,21.65,26.22,-17.48,-12.91,0.00,9.14,9.14,191.14,TARP,TARP,20.90,83.61,66.89,16.72,6,2,0,Yes
 Zone Information, ZONE OFFICE WHOLEBUILDING - MD OFFICE B  - STORY GROUND,0.0,-21.65,-12.91,0.00,1.75E-014,1.37E-014,4.57,1,1,1,-21.65,21.65,-12.91,12.91,0.00,9.14,9.14,10224.84,TARP,TARP,1118.20,0.00,0.00,0.00,6,0,0,Yes
 Zone Information, ZONE OFFICE WHOLEBUILDING - MD OFFICE B END_A - STORY GROUND,0.0,-26.22,-12.91,0.00,-23.94,1.36E-014,4.57,1,1,1,-26.22,-21.65,-12.91,12.91,0.00,9.14,9.14,1079.51,TARP,TARP,118.06,236.11,188.89,47.22,6,1,0,Yes
 Zone Information, ZONE OFFICE WHOLEBUILDING - MD OFFICE B END_B - STORY GROUND,0.0,21.65,-12.91,0.00,23.94,1.37E-014,4.57,1,1,1,21.65,26.22,-12.91,12.91,0.00,9.14,9.14,1079.51,TARP,TARP,118.06,236.11,188.89,47.22,6,1,0,Yes
 Zone Information, ZONE OFFICE WHOLEBUILDING - MD OFFICE C  - STORY GROUND,0.0,-21.65,12.91,0.00,1.81E-014,15.20,4.57,1,1,1,-21.65,21.65,12.91,17.48,0.00,9.14,9.14,1810.41,TARP,TARP,197.99,395.98,316.78,79.20,6,1,0,Yes
 Zone Information, ZONE OFFICE WHOLEBUILDING - MD OFFICE C END_A - STORY GROUND,0.0,-26.22,12.91,0.00,-23.94,15.20,4.57,1,1,1,-26.22,-21.65,12.91,17.48,0.00,9.14,9.14,191.14,TARP,TARP,20.90,83.61,66.89,16.72,6,2,0,Yes
 Zone Information, ZONE OFFICE WHOLEBUILDING - MD OFFICE C END_B - STORY GROUND,0.0,21.65,12.91,0.00,23.94,15.20,4.57,1,1,1,21.65,26.22,12.91,17.48,0.00,9.14,9.14,191.14,TARP,TARP,20.90,83.61,66.89,16.72,6,2,0,Yes
! <Zone Internal Gains Nominal>,Zone Name, Floor Area {m2},# Occupants,Area per Occupant {m2/person},Occupant per Area {person/m2},Interior Lighting {W/m2},Electric Load {W/m2},Gas Load {W/m2},Other Load {W/m2},Hot Water Eq {W/m2},Steam Equipment {W/m2},Sum Loads per Area {W/m2},Outdoor Controlled Baseboard Heat
 Zone Internal Gains Nominal, ZONE OFFICE WHOLEBUILDING - MD OFFICE A  - STORY GROUND,197.99,10.7,18.581,5.382E-002,6.889,8.073,0.000,0.000,0.000,0.000,14.962,No
 Zone Internal Gains Nominal, ZONE OFFICE WHOLEBUILDING - MD OFFICE A END_A - STORY GROUND,20.90,1.1,18.581,5.382E-002,6.889,8.073,0.000,0.000,0.000,0.000,14.962,No
 Zone Internal Gains Nominal, ZONE OFFICE WHOLEBUILDING - MD OFFICE A END_B - STORY GROUND,20.90,1.1,18.581,5.382E-002,6.889,8.073,0.000,0.000,0.000,0.000,14.962,No
 Zone Internal Gains Nominal, ZONE OFFICE WHOLEBUILDING - MD OFFICE B  - STORY GROUND,1118.20,60.2,18.581,5.382E-002,6.889,8.073,0.000,0.000,0.000,0.000,14.962,No
 Zone Internal Gains Nominal, ZONE OFFICE WHOLEBUILDING - MD OFFICE B END_A - STORY GROUND,118.06,6.4,18.581,5.382E-002,6.889,8.073,0.000,0.000,0.000,0.000,14.962,No
 Zone Internal Gains Nominal, ZONE OFFICE WHOLEBUILDING - MD OFFICE B END_B - STORY GROUND,118.06,6.4,18.581,5.382E-002,6.889,8.073,0.000,0.000,0.000,0.000,14.962,No
 Zone Internal Gains Nominal, ZONE OFFICE WHOLEBUILDING - MD OFFICE C  - STORY GROUND,197.99,10.7,18.581,5.382E-002,6.889,8.073,0.000,0.000,0.000,0.000,14.962,No
 Zone Internal Gains Nominal, ZONE OFFICE WHOLEBUILDING - MD OFFICE C END_A - STORY GROUND,20.90,1.1,18.581,5.382E-002,6.889,8.073,0.000,0.000,0.000,0.000,14.962,No
 Zone Internal Gains Nominal, ZONE OFFICE WHOLEBUILDING - MD OFFICE C END_B - STORY GROUND,20.90,1.1,18.581,5.382E-002,6.889,8.073,0.000,0.000,0.000,0.000,14.962,No
! <People Internal Gains Nominal>,Name,Schedule Name,Zone Name,Zone Floor Area {m2},# Zone Occupants,Number of People {},People/Floor Area {person/m2},Floor Area per person {m2/person},Fraction Radiant,Fraction Convected,Sensible Fraction Calculation,Activity level,ASHRAE 55 Warnings,Carbon Dioxide Generation Rate,Nominal Minimum Number of People,Nominal Maximum Number of People,MRT Calculation Type,Work Efficiency, Clothing Insulation Calculation Method,Clothing Insulation Calculation Method Schedule,Clothing,Air Velocity,Fanger Calculation,Pierce Calculation,KSU Calculation,Cooling Effect Calculation,Ankle Draft Calculation
 People Internal Gains Nominal, OFFICE WHOLEBUILDING - MD OFFICE B END_A - STORY GROUND OFFICE WHOLEBUILDING - MD OFFICE PEOPLE,OFFICEMEDIUM BLDG_OCC_SCH,ZONE OFFICE WHOLEBUILDING - MD OFFICE B END_A - STORY GROUND,118.06,6.4,6.4,5.382E-002,18.581,0.300,0.700,AutoCalculate,OFFICEMEDIUM ACTIVITY_SCH,No,3.8200E-008,0,6,Zone Averaged,WORK EFFICIENCY SCHEDULE,Clothing Insulation Schedule,N/A,CLOTHING SCHEDULE,AIR VELOCITY SCHEDULE,Yes,No,No,No,No
 People Internal Gains Nominal, OFFICE WHOLEBUILDING - MD OFFICE C END_A - STORY GROUND OFFICE WHOLEBUILDING - MD OFFICE PEOPLE,OFFICEMEDIUM BLDG_OCC_SCH,ZONE OFFICE WHOLEBUILDING - MD OFFICE C END_A - STORY GROUND,20.90,1.1,1.1,5.382E-002,18.581,0.300,0.700,AutoCalculate,OFFICEMEDIUM ACTIVITY_SCH,No,3.8200E-008,0,1,Zone Averaged,WORK EFFICIENCY SCHEDULE,Clothing Insulation Schedule,N/A,CLOTHING SCHEDULE,AIR VELOCITY SCHEDULE,Yes,No,No,No,No
 People Internal Gains Nominal, OFFICE WHOLEBUILDING - MD OFFICE A  - STORY GROUND OFFICE WHOLEBUILDING - MD OFFICE PEOPLE,OFFICEMEDIUM BLDG_OCC_SCH,ZONE OFFICE WHOLEBUILDING - MD OFFICE A  - STORY GROUND,197.99,10.7,10.7,5.382E-002,18.581,0.300,0.700,AutoCalculate,OFFICEMEDIUM ACTIVITY_SCH,No,3.8200E-008,0,11,Zone Averaged,WORK EFFICIENCY SCHEDULE,Clothing Insulation Schedule,N/A,CLOTHING SCHEDULE,AIR VELOCITY SCHEDULE,Yes,No,No,No,No
 People Internal Gains Nominal, OFFICE WHOLEBUILDING - MD OFFICE B  - STORY GROUND OFFICE WHOLEBUILDING - MD OFFICE PEOPLE,OFFICEMEDIUM BLDG_OCC_SCH,ZONE OFFICE WHOLEBUILDING - MD OFFICE B  - STORY GROUND,1118.20,60.2,60.2,5.382E-002,18.581,0.300,0.700,AutoCalculate,OFFICEMEDIUM ACTIVITY_SCH,No,3.8200E-008,0,60,Zone Averaged,WORK EFFICIENCY SCHEDULE,Clothing Insulation Schedule,N/A,CLOTHING SCHEDULE,AIR VELOCITY SCHEDULE,Yes,No,No,No,No
 People Internal Gains Nominal, OFFICE WHOLEBUILDING - MD OFFICE C END_B - STORY GROUND OFFICE WHOLEBUILDING - MD OFFICE PEOPLE,OFFICEMEDIUM BLDG_OCC_SCH,ZONE OFFICE WHOLEBUILDING - MD OFFICE C END_B - STORY GROUND,20.90,1.1,1.1,5.382E-002,18.581,0.300,0.700,AutoCalculate,OFFICEMEDIUM ACTIVITY_SCH,No,3.8200E-008,0,1,Zone Averaged,WORK EFFICIENCY SCHEDULE,Clothing Insulation Schedule,N/A,CLOTHING SCHEDULE,AIR VELOCITY SCHEDULE,Yes,No,No,No,No
 People Internal Gains Nominal, OFFICE WHOLEBUILDING - MD OFFICE C  - STORY GROUND OFFICE WHOLEBUILDING - MD OFFICE PEOPLE,OFFICEMEDIUM BLDG_OCC_SCH,ZONE OFFICE WHOLEBUILDING - MD OFFICE C  - STORY GROUND,197.99,10.7,10.7,5.382E-002,18.581,0.300,0.700,AutoCalculate,OFFICEMEDIUM ACTIVITY_SCH,No,3.8200E-008,0,11,Zone Averaged,WORK EFFICIENCY SCHEDULE,Clothing Insulation Schedule,N/A,CLOTHING SCHEDULE,AIR VELOCITY SCHEDULE,Yes,No,No,No,No
 People Internal Gains Nominal, OFFICE WHOLEBUILDING - MD OFFICE A END_A - STORY GROUND OFFICE WHOLEBUILDING - MD OFFICE PEOPLE,OFFICEMEDIUM BLDG_OCC_SCH,ZONE OFFICE WHOLEBUILDING - MD OFFICE A END_A - STORY GROUND,20.90,1.1,1.1,5.382E-002,18.581,0.300,0.700,AutoCalculate,OFFICEMEDIUM ACTIVITY_SCH,No,3.8200E-008,0,1,Zone Averaged,WORK EFFICIENCY SCHEDULE,Clothing Insulation Schedule,N/A,CLOTHING SCHEDULE,AIR VELOCITY SCHEDULE,Yes,No,No,No,No
 People Internal Gains Nominal, OFFICE WHOLEBUILDING - MD OFFICE A END_B - STORY GROUND OFFICE WHOLEBUILDING - MD OFFICE PEOPLE,OFFICEMEDIUM BLDG_OCC_SCH,ZONE OFFICE WHOLEBUILDING - MD OFFICE A END_B - STORY GROUND,20.90,1.1,1.1,5.382E-002,18.581,0.300,0.700,AutoCalculate,OFFICEMEDIUM ACTIVITY_SCH,No,3.8200E-008,0,1,Zone Averaged,WORK EFFICIENCY SCHEDULE,Clothing Insulation Schedule,N/A,CLOTHING SCHEDULE,AIR VELOCITY SCHEDULE,Yes,No,No,No,No
 People Internal Gains Nominal, OFFICE WHOLEBUILDING - MD OFFICE B END_B - STORY GROUND OFFICE WHOLEBUILDING - MD OFFICE PEOPLE,OFFICEMEDIUM BLDG_OCC_SCH,ZONE OFFICE WHOLEBUILDING - MD OFFICE B END_B - STORY GROUND,118.06,6.4,6.4,5.382E-002,18.581,0.300,0.700,AutoCalculate,OFFICEMEDIUM ACTIVITY_SCH,No,3.8200E-008,0,6,Zone Averaged,WORK EFFICIENCY SCHEDULE,Clothing Insulation Schedule,N/A,CLOTHING SCHEDULE,AIR VELOCITY SCHEDULE,Yes,No,No,No,No
! <Lights Internal Gains Nominal>,Name,Schedule Name,Zone Name,Zone Floor Area {m2},# Zone Occupants,Lighting Level {W},Lights/Floor Area {W/m2},Lights per person {W/person},Fraction Return Air,Fraction Radiant,Fraction Short Wave,Fraction Convected,Fraction Replaceable,End-Use Category,Nominal Minimum Lighting Level {W},Nominal Maximum Lighting Level {W}
 Lights Internal Gains Nominal, OFFICE WHOLEBUILDING - MD OFFICE B END_A - STORY GROUND OFFICE WHOLEBUILDING - MD OFFICE LIGHTS,OFFICEMEDIUM BLDG_LIGHT_SCH_2013,ZONE OFFICE WHOLEBUILDING - MD OFFICE B END_A - STORY GROUND,118.06,6.4,813.284,6.889,128.000,0.000,0.700,0.200,0.100,1.000,General,0.000,813.284
 Lights Internal Gains Nominal, OFFICE WHOLEBUILDING - MD OFFICE C END_A - STORY GROUND OFFICE WHOLEBUILDING - MD OFFICE LIGHTS,OFFICEMEDIUM BLDG_LIGHT_SCH_2013,ZONE OFFICE WHOLEBUILDING - MD OFFICE C END_A - STORY GROUND,20.90,1.1,144.000,6.889,128.000,0.000,0.700,0.200,0.100,1.000,General,0.000,144.000
 Lights Internal Gains Nominal, OFFICE WHOLEBUILDING - MD OFFICE A  - STORY GROUND OFFICE WHOLEBUILDING - MD OFFICE LIGHTS,OFFICEMEDIUM BLDG_LIGHT_SCH_2013,ZONE OFFICE WHOLEBUILDING - MD OFFICE A  - STORY GROUND,197.99,10.7,1363.925,6.889,128.000,0.000,0.700,0.200,0.100,1.000,General,0.000,1363.925
 Lights Internal Gains Nominal, OFFICE WHOLEBUILDING - MD OFFICE B  - STORY GROUND OFFICE WHOLEBUILDING - MD OFFICE LIGHTS,OFFICEMEDIUM BLDG_LIGHT_SCH_2013,ZONE OFFICE WHOLEBUILDING - MD OFFICE B  - STORY GROUND,1118.20,60.2,7703.182,6.889,128.000,0.000,0.700,0.200,0.100,1.000,General,0.000,7703.182
 Lights Internal Gains Nominal, OFFICE WHOLEBUILDING - MD OFFICE C END_B - STORY GROUND OFFICE WHOLEBUILDING - MD OFFICE LIGHTS,OFFICEMEDIUM BLDG_LIGHT_SCH_2013,ZONE OFFICE WHOLEBUILDING - MD OFFICE C END_B - STORY GROUND,20.90,1.1,144.000,6.889,128.000,0.000,0.700,0.200,0.100,1.000,General,0.000,144.000
 Lights Internal Gains Nominal, OFFICE WHOLEBUILDING - MD OFFICE C  - STORY GROUND OFFICE WHOLEBUILDING - MD OFFICE LIGHTS,OFFICEMEDIUM BLDG_LIGHT_SCH_2013,ZONE OFFICE WHOLEBUILDING - MD OFFICE C  - STORY GROUND,197.99,10.7,1363.925,6.889,128.000,0.000,0.700,0.200,0.100,1.000,General,0.000,1363.925
 Lights Internal Gains Nominal, OFFICE WHOLEBUILDING - MD OFFICE A END_A - STORY GROUND OFFICE WHOLEBUILDING - MD OFFICE LIGHTS,OFFICEMEDIUM BLDG_LIGHT_SCH_2013,ZONE OFFICE WHOLEBUILDING - MD OFFICE A END_A - STORY GROUND,20.90,1.1,144.000,6.889,128.000,0.000,0.700,0.200,0.100,1.000,General,0.000,144.000
 Lights Internal Gains Nominal, OFFICE WHOLEBUILDING - MD OFFICE A END_B - STORY GROUND OFFICE WHOLEBUILDING - MD OFFICE LIGHTS,OFFICEMEDIUM BLDG_LIGHT_SCH_2013,ZONE OFFICE WHOLEBUILDING - MD OFFICE A END_B - STORY GROUND,20.90,1.1,144.000,6.889,128.000,0.000,0.700,0.200,0.100,1.000,General,0.000,144.000
 Lights Internal Gains Nominal, OFFICE WHOLEBUILDING - MD OFFICE B END_B - STORY GROUND OFFICE WHOLEBUILDING - MD OFFICE LIGHTS,OFFICEMEDIUM BLDG_LIGHT_SCH_2013,ZONE OFFICE WHOLEBUILDING - MD OFFICE B END_B - STORY GROUND,118.06,6.4,813.284,6.889,128.000,0.000,0.700,0.200,0.100,1.000,General,0.000,813.284
! <ElectricEquipment Internal Gains Nominal>,Name,Schedule Name,Zone Name,Zone Floor Area {m2},# Zone Occupants,Equipment Level {W},Equipment/Floor Area {W/m2},Equipment per person {W/person},Fraction Latent,Fraction Radiant,Fraction Lost,Fraction Convected,End-Use SubCategory,Nominal Minimum Equipment Level {W},Nominal Maximum Equipment Level {W}
 ElectricEquipment Internal Gains Nominal, OFFICE WHOLEBUILDING - MD OFFICE B END_A - STORY GROUND OFFICE WHOLEBUILDING - MD OFFICE ELEC EQUIP,OFFICEMEDIUM BLDG_EQUIP_SCH_2013,ZONE OFFICE WHOLEBUILDING - MD OFFICE B END_A - STORY GROUND,118.06,6.4,953.067,8.073,150.000,0.000,0.500,0.000,0.500,General,0.000,953.067
 ElectricEquipment Internal Gains Nominal, OFFICE WHOLEBUILDING - MD OFFICE C END_A - STORY GROUND OFFICE WHOLEBUILDING - MD OFFICE ELEC EQUIP,OFFICEMEDIUM BLDG_EQUIP_SCH_2013,ZONE OFFICE WHOLEBUILDING - MD OFFICE C END_A - STORY GROUND,20.90,1.1,168.750,8.073,150.000,0.000,0.500,0.000,0.500,General,0.000,168.750
 ElectricEquipment Internal Gains Nominal, OFFICE WHOLEBUILDING - MD OFFICE A  - STORY GROUND OFFICE WHOLEBUILDING - MD OFFICE ELEC EQUIP,OFFICEMEDIUM BLDG_EQUIP_SCH_2013,ZONE OFFICE WHOLEBUILDING - MD OFFICE A  - STORY GROUND,197.99,10.7,1598.350,8.073,150.000,0.000,0.500,0.000,0.500,General,0.000,1598.350
 ElectricEquipment Internal Gains Nominal, OFFICE WHOLEBUILDING - MD OFFICE B  - STORY GROUND OFFICE WHOLEBUILDING - MD OFFICE ELEC EQUIP,OFFICEMEDIUM BLDG_EQUIP_SCH_2013,ZONE OFFICE WHOLEBUILDING - MD OFFICE B  - STORY GROUND,1118.20,60.2,9027.166,8.073,150.000,0.000,0.500,0.000,0.500,General,0.000,9027.166
 ElectricEquipment Internal Gains Nominal, OFFICE WHOLEBUILDING - MD OFFICE C END_B - STORY GROUND OFFICE WHOLEBUILDING - MD OFFICE ELEC EQUIP,OFFICEMEDIUM BLDG_EQUIP_SCH_2013,ZONE OFFICE WHOLEBUILDING - MD OFFICE C END_B - STORY GROUND,20.90,1.1,168.750,8.073,150.000,0.000,0.500,0.000,0.500,General,0.000,168.750
 ElectricEquipment Internal Gains Nominal, OFFICE WHOLEBUILDING - MD OFFICE C  - STORY GROUND OFFICE WHOLEBUILDING - MD OFFICE ELEC EQUIP,OFFICEMEDIUM BLDG_EQUIP_SCH_2013,ZONE OFFICE WHOLEBUILDING - MD OFFICE C  - STORY GROUND,197.99,10.7,1598.350,8.073,150.000,0.000,0.500,0.000,0.500,General,0.000,1598.350
 ElectricEquipment Internal Gains Nominal, OFFICE WHOLEBUILDING - MD OFFICE A END_A - STORY GROUND OFFICE WHOLEBUILDING - MD OFFICE ELEC EQUIP,OFFICEMEDIUM BLDG_EQUIP_SCH_2013,ZONE OFFICE WHOLEBUILDING - MD OFFICE A END_A - STORY GROUND,20.90,1.1,168.750,8.073,150.000,0.000,0.500,0.000,0.500,General,0.000,168.750
 ElectricEquipment Internal Gains Nominal, OFFICE WHOLEBUILDING - MD OFFICE A END_B - STORY GROUND OFFICE WHOLEBUILDING - MD OFFICE ELEC EQUIP,OFFICEMEDIUM BLDG_EQUIP_SCH_2013,ZONE OFFICE WHOLEBUILDING - MD OFFICE A END_B - STORY GROUND,20.90,1.1,168.750,8.073,150.000,0.000,0.500,0.000,0.500,General,0.000,168.750
 ElectricEquipment Internal Gains Nominal, OFFICE WHOLEBUILDING - MD OFFICE B END_B - STORY GROUND OFFICE WHOLEBUILDING - MD OFFICE ELEC EQUIP,OFFICEMEDIUM BLDG_EQUIP_SCH_2013,ZONE OFFICE WHOLEBUILDING - MD OFFICE B END_B - STORY GROUND,118.06,6.4,953.067,8.073,150.000,0.000,0.500,0.000,0.500,General,0.000,953.067
! <Shadowing/Sun Position Calculations Annual Simulations>, Shading Calculation Method, Shading Calculation Update Frequency Method, Shading Calculation Update Frequency {days}, Maximum Figures in Shadow Overlap Calculations {}, Polygon Clipping Algorithm, Pixel Counting Resolution, Sky Diffuse Modeling Algorithm, Output External Shading Calculation Results, Disable Self-Shading Within Shading Zone Groups, Disable Self-Shading From Shading Zone Groups to Other Zones
Shadowing/Sun Position Calculations Annual Simulations,PolygonClipping,Periodic,30,15000,SutherlandHodgman,512,SimpleSkyDiffuseModeling,No,No,No
! <Enclosure/Window Adjacency Daylighting Counts>, Enclosure Name, Number of Exterior Windows, Number of Exterior Windows in Adjacent Enclosures
Enclosure/Window Adjacency Daylighting Counts, OFFICE WHOLEBUILDING - MD OFFICE A  - STORY GROUND,1,0
Enclosure/Window Adjacency Daylighting Counts, OFFICE WHOLEBUILDING - MD OFFICE B END_A - STORY GROUND,1,0
Enclosure/Window Adjacency Daylighting Counts, OFFICE WHOLEBUILDING - MD OFFICE B END_B - STORY GROUND,1,0
Enclosure/Window Adjacency Daylighting Counts, OFFICE WHOLEBUILDING - MD OFFICE C  - STORY GROUND,1,0
! <Enclosure/Window Adjacency Daylighting Matrix>, Enclosure Name, Number of Adjacent Enclosures with Windows,Adjacent Enclosure Names - 1st 100 (max)
Enclosure/Window Adjacency Daylighting Matrix, OFFICE WHOLEBUILDING - MD OFFICE A  - STORY GROUND,0
Enclosure/Window Adjacency Daylighting Matrix, OFFICE WHOLEBUILDING - MD OFFICE B END_A - STORY GROUND,0
Enclosure/Window Adjacency Daylighting Matrix, OFFICE WHOLEBUILDING - MD OFFICE B END_B - STORY GROUND,0
Enclosure/Window Adjacency Daylighting Matrix, OFFICE WHOLEBUILDING - MD OFFICE C  - STORY GROUND,0
! <Water Heater Information>,Type,Name,Volume {m3},Maximum Capacity {W},Standard Rated Recovery Efficiency, Standard Rated Energy Factor
! <ZoneInfiltration Airflow Stats Nominal>,Name,Schedule Name,Zone Name, Zone Floor Area {m2}, # Zone Occupants,Design Volume Flow Rate {m3/s},Volume Flow Rate/Floor Area {m3/s-m2},Volume Flow Rate/Exterior Surface Area {m3/s-m2},ACH - Air Changes per Hour,Equation A - Constant Term Coefficient {},Equation B - Temperature Term Coefficient {1/C},Equation C - Velocity Term Coefficient {s/m}, Equation D - Velocity Squared Term Coefficient {s2/m2}
 ZoneInfiltration Airflow Stats Nominal, OFFICE WHOLEBUILDING - MD OFFICE A  - STORY GROUND INFILTRATION,ALWAYS ON DISCRETE,ZONE OFFICE WHOLEBUILDING - MD OFFICE A  - STORY GROUND,197.99,10.7,0.226,1.139E-003,3.797E-004,0.448,0.000,0.000,0.224,0.000
 ZoneInfiltration Airflow Stats Nominal, OFFICE WHOLEBUILDING - MD OFFICE A END_A - STORY GROUND INFILTRATION,ALWAYS ON DISCRETE,ZONE OFFICE WHOLEBUILDING - MD OFFICE A END_A - STORY GROUND,20.90,1.1,4.762E-002,2.278E-003,4.557E-004,0.897,0.000,0.000,0.224,0.000
 ZoneInfiltration Airflow Stats Nominal, OFFICE WHOLEBUILDING - MD OFFICE A END_B - STORY GROUND INFILTRATION,ALWAYS ON DISCRETE,ZONE OFFICE WHOLEBUILDING - MD OFFICE A END_B - STORY GROUND,20.90,1.1,4.762E-002,2.278E-003,4.557E-004,0.897,0.000,0.000,0.224,0.000
 ZoneInfiltration Airflow Stats Nominal, OFFICE WHOLEBUILDING - MD OFFICE B END_A - STORY GROUND INFILTRATION,ALWAYS ON DISCRETE,ZONE OFFICE WHOLEBUILDING - MD OFFICE B END_A - STORY GROUND,118.06,6.4,0.134,1.139E-003,3.797E-004,0.448,0.000,0.000,0.224,0.000
 ZoneInfiltration Airflow Stats Nominal, OFFICE WHOLEBUILDING - MD OFFICE B END_B - STORY GROUND INFILTRATION,ALWAYS ON DISCRETE,ZONE OFFICE WHOLEBUILDING - MD OFFICE B END_B - STORY GROUND,118.06,6.4,0.134,1.139E-003,3.797E-004,0.448,0.000,0.000,0.224,0.000
 ZoneInfiltration Airflow Stats Nominal, OFFICE WHOLEBUILDING - MD OFFICE C  - STORY GROUND INFILTRATION,ALWAYS ON DISCRETE,ZONE OFFICE WHOLEBUILDING - MD OFFICE C  - STORY GROUND,197.99,10.7,0.226,1.139E-003,3.797E-004,0.448,0.000,0.000,0.224,0.000
 ZoneInfiltration Airflow Stats Nominal, OFFICE WHOLEBUILDING - MD OFFICE C END_A - STORY GROUND INFILTRATION,ALWAYS ON DISCRETE,ZONE OFFICE WHOLEBUILDING - MD OFFICE C END_A - STORY GROUND,20.90,1.1,4.762E-002,2.278E-003,4.557E-004,0.897,0.000,0.000,0.224,0.000
 ZoneInfiltration Airflow Stats Nominal, OFFICE WHOLEBUILDING - MD OFFICE C END_B - STORY GROUND INFILTRATION,ALWAYS ON DISCRETE,ZONE OFFICE WHOLEBUILDING - MD OFFICE C END_B - STORY GROUND,20.90,1.1,4.762E-002,2.278E-003,4.557E-004,0.897,0.000,0.000,0.224,0.000
! <AirFlow Model>, Simple
 AirFlow Model, Simple
! <RoomAir Model>, Zone Name, Mixing/Mundt/UCSDDV/UCSDCV/UCSDUFI/UCSDUFE/User Defined
RoomAir Model,ZONE OFFICE WHOLEBUILDING - MD OFFICE A  - STORY GROUND,Mixing/Well-Stirred
RoomAir Model,ZONE OFFICE WHOLEBUILDING - MD OFFICE A END_A - STORY GROUND,Mixing/Well-Stirred
RoomAir Model,ZONE OFFICE WHOLEBUILDING - MD OFFICE A END_B - STORY GROUND,Mixing/Well-Stirred
RoomAir Model,ZONE OFFICE WHOLEBUILDING - MD OFFICE B  - STORY GROUND,Mixing/Well-Stirred
RoomAir Model,ZONE OFFICE WHOLEBUILDING - MD OFFICE B END_A - STORY GROUND,Mixing/Well-Stirred
RoomAir Model,ZONE OFFICE WHOLEBUILDING - MD OFFICE B END_B - STORY GROUND,Mixing/Well-Stirred
RoomAir Model,ZONE OFFICE WHOLEBUILDING - MD OFFICE C  - STORY GROUND,Mixing/Well-Stirred
RoomAir Model,ZONE OFFICE WHOLEBUILDING - MD OFFICE C END_A - STORY GROUND,Mixing/Well-Stirred
RoomAir Model,ZONE OFFICE WHOLEBUILDING - MD OFFICE C END_B - STORY GROUND,Mixing/Well-Stirred
! <AirflowNetwork Model:Control>, No Multizone or Distribution/Multizone with Distribution/Multizone without Distribution/Multizone with Distribution only during Fan Operation
AirflowNetwork Model:Control,NoMultizoneOrDistribution
! <Zone Volume Capacitance Multiplier>, Sensible Heat Capacity Multiplier, Moisture Capacity Multiplier, Carbon Dioxide Capacity Multiplier, Generic Contaminant Capacity Multiplier
Zone Volume Capacitance Multiplier,   1.000 ,   1.000,   1.000,   1.000
! <Load Timesteps in Zone Design Calculation Averaging Window>, Value
 Load Timesteps in Zone Design Calculation Averaging Window,    1
! <Heating Sizing Factor Information>, Sizing Factor ID, Value
 Heating Sizing Factor Information, Global,   1.2500    
 Heating Sizing Factor Information, Zone ZONE OFFICE WHOLEBUILDING - MD OFFICE A  - STORY GROUND,   1.2500    
 Heating Sizing Factor Information, Zone ZONE OFFICE WHOLEBUILDING - MD OFFICE A END_A - STORY GROUND,   1.2500    
 Heating Sizing Factor Information, Zone ZONE OFFICE WHOLEBUILDING - MD OFFICE A END_B - STORY GROUND,   1.2500    
 Heating Sizing Factor Information, Zone ZONE OFFICE WHOLEBUILDING - MD OFFICE B  - STORY GROUND,   1.2500    
 Heating Sizing Factor Information, Zone ZONE OFFICE WHOLEBUILDING - MD OFFICE B END_A - STORY GROUND,   1.2500    
 Heating Sizing Factor Information, Zone ZONE OFFICE WHOLEBUILDING - MD OFFICE B END_B - STORY GROUND,   1.2500    
 Heating Sizing Factor Information, Zone ZONE OFFICE WHOLEBUILDING - MD OFFICE C  - STORY GROUND,   1.2500    
 Heating Sizing Factor Information, Zone ZONE OFFICE WHOLEBUILDING - MD OFFICE C END_A - STORY GROUND,   1.2500    
 Heating Sizing Factor Information, Zone ZONE OFFICE WHOLEBUILDING - MD OFFICE C END_B - STORY GROUND,   1.2500    
! <Cooling Sizing Factor Information>, Sizing Factor ID, Value
 Cooling Sizing Factor Information, Global,   1.1500    
 Cooling Sizing Factor Information, Zone ZONE OFFICE WHOLEBUILDING - MD OFFICE A  - STORY GROUND,   1.1500    
 Cooling Sizing Factor Information, Zone ZONE OFFICE WHOLEBUILDING - MD OFFICE A END_A - STORY GROUND,   1.1500    
 Cooling Sizing Factor Information, Zone ZONE OFFICE WHOLEBUILDING - MD OFFICE A END_B - STORY GROUND,   1.1500    
 Cooling Sizing Factor Information, Zone ZONE OFFICE WHOLEBUILDING - MD OFFICE B  - STORY GROUND,   1.1500    
 Cooling Sizing Factor Information, Zone ZONE OFFICE WHOLEBUILDING - MD OFFICE B END_A - STORY GROUND,   1.1500    
 Cooling Sizing Factor Information, Zone ZONE OFFICE WHOLEBUILDING - MD OFFICE B END_B - STORY GROUND,   1.1500    
 Cooling Sizing Factor Information, Zone ZONE OFFICE WHOLEBUILDING - MD OFFICE C  - STORY GROUND,   1.1500    
 Cooling Sizing Factor Information, Zone ZONE OFFICE WHOLEBUILDING - MD OFFICE C END_A - STORY GROUND,   1.1500    
 Cooling Sizing Factor Information, Zone ZONE OFFICE WHOLEBUILDING - MD OFFICE C END_B - STORY GROUND,   1.1500    
! <Sky Daylight Factors>, Sky Type, MonthAndDay, Daylighting Control Name, Enclosure Name, Window Name, Reference Point, Daylight Factor
 Sky Daylight Factors,Clear Sky,08/21,ZONE OFFICE WHOLEBUILDING - MD OFFICE A  - STORY GROUND DAYLIGHTINGCONTROLS,OFFICE WHOLEBUILDING - MD OFFICE A  - STORY GROUND,SUB SURFACE 10,OFFICE WHOLEBUILDING - MD OFFICE A  - STORY GROUND DAYLT SENSOR 1,8.4860E-002
 Sky Daylight Factors,Clear Sky,08/21,ZONE OFFICE WHOLEBUILDING - MD OFFICE A  - STORY GROUND DAYLIGHTINGCONTROLS,OFFICE WHOLEBUILDING - MD OFFICE A  - STORY GROUND,SUB SURFACE 10,OFFICE WHOLEBUILDING - MD OFFICE A  - STORY GROUND DAYLT SENSOR 2,3.9120E-002
 Sky Daylight Factors,Clear Turbid Sky,08/21,ZONE OFFICE WHOLEBUILDING - MD OFFICE A  - STORY GROUND DAYLIGHTINGCONTROLS,OFFICE WHOLEBUILDING - MD OFFICE A  - STORY GROUND,SUB SURFACE 10,OFFICE WHOLEBUILDING - MD OFFICE A  - STORY GROUND DAYLT SENSOR 1,9.0928E-002
 Sky Daylight Factors,Clear Turbid Sky,08/21,ZONE OFFICE WHOLEBUILDING - MD OFFICE A  - STORY GROUND DAYLIGHTINGCONTROLS,OFFICE WHOLEBUILDING - MD OFFICE A  - STORY GROUND,SUB SURFACE 10,OFFICE WHOLEBUILDING - MD OFFICE A  - STORY GROUND DAYLT SENSOR 2,4.0385E-002
 Sky Daylight Factors,Intermediate Sky,08/21,ZONE OFFICE WHOLEBUILDING - MD OFFICE A  - STORY GROUND DAYLIGHTINGCONTROLS,OFFICE WHOLEBUILDING - MD OFFICE A  - STORY GROUND,SUB SURFACE 10,OFFICE WHOLEBUILDING - MD OFFICE A  - STORY GROUND DAYLT SENSOR 1,6.9906E-002
 Sky Daylight Factors,Intermediate Sky,08/21,ZONE OFFICE WHOLEBUILDING - MD OFFICE A  - STORY GROUND DAYLIGHTINGCONTROLS,OFFICE WHOLEBUILDING - MD OFFICE A  - STORY GROUND,SUB SURFACE 10,OFFICE WHOLEBUILDING - MD OFFICE A  - STORY GROUND DAYLT SENSOR 2,2.9435E-002
 Sky Daylight Factors,Overcast Sky,08/21,ZONE OFFICE WHOLEBUILDING - MD OFFICE A  - STORY GROUND DAYLIGHTINGCONTROLS,OFFICE WHOLEBUILDING - MD OFFICE A  - STORY GROUND,SUB SURFACE 10,OFFICE WHOLEBUILDING - MD OFFICE A  - STORY GROUND DAYLT SENSOR 1,3.4090E-002
 Sky Daylight Factors,Overcast Sky,08/21,ZONE OFFICE WHOLEBUILDING - MD OFFICE A  - STORY GROUND DAYLIGHTINGCONTROLS,OFFICE WHOLEBUILDING - MD OFFICE A  - STORY GROUND,SUB SURFACE 10,OFFICE WHOLEBUILDING - MD OFFICE A  - STORY GROUND DAYLT SENSOR 2,1.3917E-002
 Sky Daylight Factors,Clear Sky,08/21,ZONE OFFICE WHOLEBUILDING - MD OFFICE B END_A - STORY GROUND DAYLIGHTINGCONTROLS,OFFICE WHOLEBUILDING - MD OFFICE B END_A - STORY GROUND,SUB SURFACE 3,OFFICE WHOLEBUILDING - MD OFFICE B END_A - STORY GROUND DAYLT SENSOR 1,3.0662E-002
 Sky Daylight Factors,Clear Sky,08/21,ZONE OFFICE WHOLEBUILDING - MD OFFICE B END_A - STORY GROUND DAYLIGHTINGCONTROLS,OFFICE WHOLEBUILDING - MD OFFICE B END_A - STORY GROUND,SUB SURFACE 3,OFFICE WHOLEBUILDING - MD OFFICE B END_A - STORY GROUND DAYLT SENSOR 2,1.6843E-002
 Sky Daylight Factors,Clear Turbid Sky,08/21,ZONE OFFICE WHOLEBUILDING - MD OFFICE B END_A - STORY GROUND DAYLIGHTINGCONTROLS,OFFICE WHOLEBUILDING - MD OFFICE B END_A - STORY GROUND,SUB SURFACE 3,OFFICE WHOLEBUILDING - MD OFFICE B END_A - STORY GROUND DAYLT SENSOR 1,2.5028E-002
 Sky Daylight Factors,Clear Turbid Sky,08/21,ZONE OFFICE WHOLEBUILDING - MD OFFICE B END_A - STORY GROUND DAYLIGHTINGCONTROLS,OFFICE WHOLEBUILDING - MD OFFICE B END_A - STORY GROUND,SUB SURFACE 3,OFFICE WHOLEBUILDING - MD OFFICE B END_A - STORY GROUND DAYLT SENSOR 2,1.3572E-002
 Sky Daylight Factors,Intermediate Sky,08/21,ZONE OFFICE WHOLEBUILDING - MD OFFICE B END_A - STORY GROUND DAYLIGHTINGCONTROLS,OFFICE WHOLEBUILDING - MD OFFICE B END_A - STORY GROUND,SUB SURFACE 3,OFFICE WHOLEBUILDING - MD OFFICE B END_A - STORY GROUND DAYLT SENSOR 1,2.6269E-002
 Sky Daylight Factors,Intermediate Sky,08/21,ZONE OFFICE WHOLEBUILDING - MD OFFICE B END_A - STORY GROUND DAYLIGHTINGCONTROLS,OFFICE WHOLEBUILDING - MD OFFICE B END_A - STORY GROUND,SUB SURFACE 3,OFFICE WHOLEBUILDING - MD OFFICE B END_A - STORY GROUND DAYLT SENSOR 2,1.1768E-002
 Sky Daylight Factors,Overcast Sky,08/21,ZONE OFFICE WHOLEBUILDING - MD OFFICE B END_A - STORY GROUND DAYLIGHTINGCONTROLS,OFFICE WHOLEBUILDING - MD OFFICE B END_A - STORY GROUND,SUB SURFACE 3,OFFICE WHOLEBUILDING - MD OFFICE B END_A - STORY GROUND DAYLT SENSOR 1,3.3985E-002
 Sky Daylight Factors,Overcast Sky,08/21,ZONE OFFICE WHOLEBUILDING - MD OFFICE B END_A - STORY GROUND DAYLIGHTINGCONTROLS,OFFICE WHOLEBUILDING - MD OFFICE B END_A - STORY GROUND,SUB SURFACE 3,OFFICE WHOLEBUILDING - MD OFFICE B END_A - STORY GROUND DAYLT SENSOR 2,1.3777E-002
 Sky Daylight Factors,Clear Sky,08/21,ZONE OFFICE WHOLEBUILDING - MD OFFICE B END_B - STORY GROUND DAYLIGHTINGCONTROLS,OFFICE WHOLEBUILDING - MD OFFICE B END_B - STORY GROUND,SUB SURFACE 8,OFFICE WHOLEBUILDING - MD OFFICE B END_B - STORY GROUND DAYLT SENSOR 1,6.4498E-002
 Sky Daylight Factors,Clear Sky,08/21,ZONE OFFICE WHOLEBUILDING - MD OFFICE B END_B - STORY GROUND DAYLIGHTINGCONTROLS,OFFICE WHOLEBUILDING - MD OFFICE B END_B - STORY GROUND,SUB SURFACE 8,OFFICE WHOLEBUILDING - MD OFFICE B END_B - STORY GROUND DAYLT SENSOR 2,3.0441E-002
 Sky Daylight Factors,Clear Turbid Sky,08/21,ZONE OFFICE WHOLEBUILDING - MD OFFICE B END_B - STORY GROUND DAYLIGHTINGCONTROLS,OFFICE WHOLEBUILDING - MD OFFICE B END_B - STORY GROUND,SUB SURFACE 8,OFFICE WHOLEBUILDING - MD OFFICE B END_B - STORY GROUND DAYLT SENSOR 1,6.5987E-002
 Sky Daylight Factors,Clear Turbid Sky,08/21,ZONE OFFICE WHOLEBUILDING - MD OFFICE B END_B - STORY GROUND DAYLIGHTINGCONTROLS,OFFICE WHOLEBUILDING - MD OFFICE B END_B - STORY GROUND,SUB SURFACE 8,OFFICE WHOLEBUILDING - MD OFFICE B END_B - STORY GROUND DAYLT SENSOR 2,2.9992E-002
 Sky Daylight Factors,Intermediate Sky,08/21,ZONE OFFICE WHOLEBUILDING - MD OFFICE B END_B - STORY GROUND DAYLIGHTINGCONTROLS,OFFICE WHOLEBUILDING - MD OFFICE B END_B - STORY GROUND,SUB SURFACE 8,OFFICE WHOLEBUILDING - MD OFFICE B END_B - STORY GROUND DAYLT SENSOR 1,5.7076E-002
 Sky Daylight Factors,Intermediate Sky,08/21,ZONE OFFICE WHOLEBUILDING - MD OFFICE B END_B - STORY GROUND DAYLIGHTINGCONTROLS,OFFICE WHOLEBUILDING - MD OFFICE B END_B - STORY GROUND,SUB SURFACE 8,OFFICE WHOLEBUILDING - MD OFFICE B END_B - STORY GROUND DAYLT SENSOR 2,2.4290E-002
 Sky Daylight Factors,Overcast Sky,08/21,ZONE OFFICE WHOLEBUILDING - MD OFFICE B END_B - STORY GROUND DAYLIGHTINGCONTROLS,OFFICE WHOLEBUILDING - MD OFFICE B END_B - STORY GROUND,SUB SURFACE 8,OFFICE WHOLEBUILDING - MD OFFICE B END_B - STORY GROUND DAYLT SENSOR 1,3.3985E-002
 Sky Daylight Factors,Overcast Sky,08/21,ZONE OFFICE WHOLEBUILDING - MD OFFICE B END_B - STORY GROUND DAYLIGHTINGCONTROLS,OFFICE WHOLEBUILDING - MD OFFICE B END_B - STORY GROUND,SUB SURFACE 8,OFFICE WHOLEBUILDING - MD OFFICE B END_B - STORY GROUND DAYLT SENSOR 2,1.3777E-002
 Sky Daylight Factors,Clear Sky,08/21,ZONE OFFICE WHOLEBUILDING - MD OFFICE C  - STORY GROUND DAYLIGHTINGCONTROLS,OFFICE WHOLEBUILDING - MD OFFICE C  - STORY GROUND,SUB SURFACE 9,OFFICE WHOLEBUILDING - MD OFFICE C  - STORY GROUND DAYLT SENSOR 1,2.9117E-002
 Sky Daylight Factors,Clear Sky,08/21,ZONE OFFICE WHOLEBUILDING - MD OFFICE C  - STORY GROUND DAYLIGHTINGCONTROLS,OFFICE WHOLEBUILDING - MD OFFICE C  - STORY GROUND,SUB SURFACE 9,OFFICE WHOLEBUILDING - MD OFFICE C  - STORY GROUND DAYLT SENSOR 2,1.6570E-002
 Sky Daylight Factors,Clear Turbid Sky,08/21,ZONE OFFICE WHOLEBUILDING - MD OFFICE C  - STORY GROUND DAYLIGHTINGCONTROLS,OFFICE WHOLEBUILDING - MD OFFICE C  - STORY GROUND,SUB SURFACE 9,OFFICE WHOLEBUILDING - MD OFFICE C  - STORY GROUND DAYLT SENSOR 1,2.2987E-002
 Sky Daylight Factors,Clear Turbid Sky,08/21,ZONE OFFICE WHOLEBUILDING - MD OFFICE C  - STORY GROUND DAYLIGHTINGCONTROLS,OFFICE WHOLEBUILDING - MD OFFICE C  - STORY GROUND,SUB SURFACE 9,OFFICE WHOLEBUILDING - MD OFFICE C  - STORY GROUND DAYLT SENSOR 2,1.2958E-002
 Sky Daylight Factors,Intermediate Sky,08/21,ZONE OFFICE WHOLEBUILDING - MD OFFICE C  - STORY GROUND DAYLIGHTINGCONTROLS,OFFICE WHOLEBUILDING - MD OFFICE C  - STORY GROUND,SUB SURFACE 9,OFFICE WHOLEBUILDING - MD OFFICE C  - STORY GROUND DAYLT SENSOR 1,2.2039E-002
 Sky Daylight Factors,Intermediate Sky,08/21,ZONE OFFICE WHOLEBUILDING - MD OFFICE C  - STORY GROUND DAYLIGHTINGCONTROLS,OFFICE WHOLEBUILDING - MD OFFICE C  - STORY GROUND,SUB SURFACE 9,OFFICE WHOLEBUILDING - MD OFFICE C  - STORY GROUND DAYLT SENSOR 2,1.0020E-002
 Sky Daylight Factors,Overcast Sky,08/21,ZONE OFFICE WHOLEBUILDING - MD OFFICE C  - STORY GROUND DAYLIGHTINGCONTROLS,OFFICE WHOLEBUILDING - MD OFFICE C  - STORY GROUND,SUB SURFACE 9,OFFICE WHOLEBUILDING - MD OFFICE C  - STORY GROUND DAYLT SENSOR 1,3.4090E-002
 Sky Daylight Factors,Overcast Sky,08/21,ZONE OFFICE WHOLEBUILDING - MD OFFICE C  - STORY GROUND DAYLIGHTINGCONTROLS,OFFICE WHOLEBUILDING - MD OFFICE C  - STORY GROUND,SUB SURFACE 9,OFFICE WHOLEBUILDING - MD OFFICE C  - STORY GROUND DAYLT SENSOR 2,1.3917E-002
! <Zone Sizing Information>, Zone Name, Load Type, Calc Des Load {W}, User Des Load {W}, Calc Des Air Flow Rate {m3/s}, User Des Air Flow Rate {m3/s}, Design Day Name, Date/Time of Peak, Temperature at Peak {C}, Humidity Ratio at Peak {kgWater/kgDryAir}, Floor Area {m2}, # Occupants, Calc Outdoor Air Flow Rate {m3/s}, Calc DOAS Heat Addition Rate {W}
 Zone Sizing Information, ZONE OFFICE WHOLEBUILDING - MD OFFICE A  - STORY GROUND, Cooling, 15556.67723, 17890.17881, 1.12857, 1.29786, KODIAK AUGUST .4% CONDNS DB=>MCWB, 8/21 15:00:00, 22.60000, 8.70767E-003, 197.98878, 10.65567, 8.54916E-002, 0.00000
 Zone Sizing Information, ZONE OFFICE WHOLEBUILDING - MD OFFICE A  - STORY GROUND, Heating, 23981.14404, 29976.43005, 0.66462, 0.83078, KODIAK ANN HTG 99.6% CONDNS DB, 1/21 08:00:00, -12.80000, 1.24844E-003, 197.98878, 10.65567, 8.54916E-002, 0.00000
 Zone Sizing Information, ZONE OFFICE WHOLEBUILDING - MD OFFICE A END_A - STORY GROUND, Cooling, 2465.67796, 2835.52966, 0.17887, 0.20570, KODIAK AUGUST .4% CONDNS DB=>MCWB, 8/21 17:00:00, 21.71800, 8.70630E-003, 20.90318, 1.12500, 9.02599E-003, 0.00000
 Zone Sizing Information, ZONE OFFICE WHOLEBUILDING - MD OFFICE A END_A - STORY GROUND, Heating, 4667.24569, 5834.05712, 0.12946, 0.16182, KODIAK ANN HTG 99.6% CONDNS DB, 1/21 08:00:00, -12.80000, 1.24844E-003, 20.90318, 1.12500, 9.02599E-003, 0.00000
 Zone Sizing Information, ZONE OFFICE WHOLEBUILDING - MD OFFICE A END_B - STORY GROUND, Cooling, 2389.85222, 2748.33005, 0.17336, 0.19937, KODIAK JULY .4% CONDNS DB=>MCWB, 7/21 12:00:00, 23.48500, 8.28382E-003, 20.90318, 1.12500, 9.02599E-003, 0.00000
 Zone Sizing Information, ZONE OFFICE WHOLEBUILDING - MD OFFICE A END_B - STORY GROUND, Heating, 4646.38451, 5807.98063, 0.12888, 0.16110, KODIAK ANN HTG 99.6% CONDNS DB, 1/21 08:00:00, -12.80000, 1.24844E-003, 20.90318, 1.12500, 9.02599E-003, 0.00000
 Zone Sizing Information, ZONE OFFICE WHOLEBUILDING - MD OFFICE B  - STORY GROUND, Cooling, 34541.37669, 39722.58320, 2.39953, 2.75945, KODIAK JULY .4% CONDNS DB=>MCWB, 7/21 08:00:00, 20.13000, 8.27867E-003, 1118.20159, 60.18111, 0.48284, 0.00000
 Zone Sizing Information, ZONE OFFICE WHOLEBUILDING - MD OFFICE B  - STORY GROUND, Heating, 34410.11385, 43012.64231, 0.94898, 1.18623, KODIAK ANN HTG 99.6% CONDNS DB, 1/21 08:00:00, -12.80000, 1.24844E-003, 1118.20159, 60.18111, 0.48284, 0.00000
 Zone Sizing Information, ZONE OFFICE WHOLEBUILDING - MD OFFICE B END_A - STORY GROUND, Cooling, 9623.50329, 11067.02878, 0.69813, 0.80285, KODIAK JULY .4% CONDNS DB=>MCWB, 7/21 20:00:00, 21.45000, 8.28069E-003, 118.05706, 6.35378, 5.09770E-002, 0.00000
 Zone Sizing Information, ZONE OFFICE WHOLEBUILDING - MD OFFICE B END_A - STORY GROUND, Heating, 14714.16870, 18392.71088, 0.40782, 0.50978, KODIAK ANN HTG 99.6% CONDNS DB, 1/21 08:00:00, -12.80000, 1.24844E-003, 118.05706, 6.35378, 5.09770E-002, 0.00000
 Zone Sizing Information, ZONE OFFICE WHOLEBUILDING - MD OFFICE B END_B - STORY GROUND, Cooling, 9822.21607, 11295.54848, 0.68514, 0.78792, KODIAK JULY .4% CONDNS DB=>MCWB, 7/21 08:00:00, 20.13000, 8.27867E-003, 118.05706, 6.35378, 5.09770E-002, 0.00000
 Zone Sizing Information, ZONE OFFICE WHOLEBUILDING - MD OFFICE B END_B - STORY GROUND, Heating, 14625.55170, 18281.93963, 0.40536, 0.50670, KODIAK ANN HTG 99.6% CONDNS DB, 1/21 08:00:00, -12.80000, 1.24844E-003, 118.05706, 6.35378, 5.09770E-002, 0.00000
 Zone Sizing Information, ZONE OFFICE WHOLEBUILDING - MD OFFICE C  - STORY GROUND, Cooling, 6685.50059, 7688.32567, 0.46504, 0.53480, KODIAK JULY .4% CONDNS DB=>MCWB, 7/21 08:00:00, 20.13000, 8.27867E-003, 197.98878, 10.65567, 8.54916E-002, 0.00000
 Zone Sizing Information, ZONE OFFICE WHOLEBUILDING - MD OFFICE C  - STORY GROUND, Heating, 24122.31602, 30152.89503, 0.66854, 0.83568, KODIAK ANN HTG 99.6% CONDNS DB, 1/21 08:00:00, -12.80000, 1.24844E-003, 197.98878, 10.65567, 8.54916E-002, 0.00000
 Zone Sizing Information, ZONE OFFICE WHOLEBUILDING - MD OFFICE C END_A - STORY GROUND, Cooling, 1880.87494, 2163.00618, 0.13644, 0.15691, KODIAK JULY .4% CONDNS DB=>MCWB, 7/21 20:00:00, 21.45000, 8.28069E-003, 20.90318, 1.12500, 9.02599E-003, 0.00000
 Zone Sizing Information, ZONE OFFICE WHOLEBUILDING - MD OFFICE C END_A - STORY GROUND, Heating, 4688.03763, 5860.04704, 0.13004, 0.16255, KODIAK ANN HTG 99.6% CONDNS DB, 1/21 08:00:00, -12.80000, 1.24844E-003, 20.90318, 1.12500, 9.02599E-003, 0.00000
 Zone Sizing Information, ZONE OFFICE WHOLEBUILDING - MD OFFICE C END_B - STORY GROUND, Cooling, 1870.45657, 2151.02506, 0.13061, 0.15020, KODIAK JULY .4% CONDNS DB=>MCWB, 7/21 08:00:00, 20.13000, 8.27867E-003, 20.90318, 1.12500, 9.02599E-003, 0.00000
 Zone Sizing Information, ZONE OFFICE WHOLEBUILDING - MD OFFICE C END_B - STORY GROUND, Heating, 4667.20122, 5834.00152, 0.12946, 0.16182, KODIAK ANN HTG 99.6% CONDNS DB, 1/21 08:00:00, -12.80000, 1.24844E-003, 20.90318, 1.12500, 9.02599E-003, 0.00000
! <System Sizing Information>, System Name, Load Type, Peak Load Kind, User Design Capacity, Calc Des Air Flow Rate [m3/s], User Des Air Flow Rate [m3/s], Design Day Name, Date/Time of Peak
 System Sizing Information, ZONE OFFICE WHOLEBUILDING - MD OFFICE A  - STORY GROUND PSZ-AC, Cooling, Sensible, 17468.90, 1.29786, 1.29786, KODIAK AUGUST .4% CONDNS DB=>MCWB, 8/21 05:00:00
 System Sizing Information, ZONE OFFICE WHOLEBUILDING - MD OFFICE A  - STORY GROUND PSZ-AC, Heating, Sensible, 32925.58, 0.83078, 0.83078, KODIAK ANN HTG 99.6% CONDNS DB, 1/21 08:00:00
 System Sizing Information, ZONE OFFICE WHOLEBUILDING - MD OFFICE A END_A - STORY GROUND PSZ-AC, Cooling, Sensible, 2766.78, 0.20570, 0.20570, KODIAK AUGUST .4% CONDNS DB=>MCWB, 8/21 05:00:00
 System Sizing Information, ZONE OFFICE WHOLEBUILDING - MD OFFICE A END_A - STORY GROUND PSZ-AC, Heating, Sensible, 6107.44, 0.16182, 0.16182, KODIAK ANN HTG 99.6% CONDNS DB, 1/21 08:00:00
 System Sizing Information, ZONE OFFICE WHOLEBUILDING - MD OFFICE A END_B - STORY GROUND PSZ-AC, Cooling, Sensible, 2700.22, 0.19937, 0.19937, KODIAK JULY .4% CONDNS DB=>MCWB, 7/21 05:00:00
 System Sizing Information, ZONE OFFICE WHOLEBUILDING - MD OFFICE A END_B - STORY GROUND PSZ-AC, Heating, Sensible, 6081.73, 0.16110, 0.16110, KODIAK ANN HTG 99.6% CONDNS DB, 1/21 08:00:00
 System Sizing Information, ZONE OFFICE WHOLEBUILDING - MD OFFICE B  - STORY GROUND PSZ-AC, Cooling, Sensible, 36259.14, 2.75945, 2.75945, KODIAK JULY .4% CONDNS DB=>MCWB, 7/21 05:00:00
 System Sizing Information, ZONE OFFICE WHOLEBUILDING - MD OFFICE B  - STORY GROUND PSZ-AC, Heating, Sensible, 61570.68, 1.18623, 1.18623, KODIAK ANN HTG 99.6% CONDNS DB, 1/21 08:00:00
 System Sizing Information, ZONE OFFICE WHOLEBUILDING - MD OFFICE B END_A - STORY GROUND PSZ-AC, Cooling, Sensible, 10747.69, 0.80285, 0.80285, KODIAK JULY .4% CONDNS DB=>MCWB, 7/21 05:00:00
 System Sizing Information, ZONE OFFICE WHOLEBUILDING - MD OFFICE B END_A - STORY GROUND PSZ-AC, Heating, Sensible, 20143.86, 0.50978, 0.50978, KODIAK ANN HTG 99.6% CONDNS DB, 1/21 08:00:00
 System Sizing Information, ZONE OFFICE WHOLEBUILDING - MD OFFICE B END_B - STORY GROUND PSZ-AC, Cooling, Sensible, 10891.39, 0.81101, 0.81101, KODIAK JULY .4% CONDNS DB=>MCWB, 7/21 05:00:00
 System Sizing Information, ZONE OFFICE WHOLEBUILDING - MD OFFICE B END_B - STORY GROUND PSZ-AC, Heating, Sensible, 20034.66, 0.50670, 0.50670, KODIAK ANN HTG 99.6% CONDNS DB, 1/21 08:00:00
 System Sizing Information, ZONE OFFICE WHOLEBUILDING - MD OFFICE C  - STORY GROUND PSZ-AC, Cooling, Sensible, 7065.89, 0.53480, 0.53480, KODIAK JULY .4% CONDNS DB=>MCWB, 7/21 05:00:00
 System Sizing Information, ZONE OFFICE WHOLEBUILDING - MD OFFICE C  - STORY GROUND PSZ-AC, Heating, Sensible, 33099.54, 0.83568, 0.83568, KODIAK ANN HTG 99.6% CONDNS DB, 1/21 08:00:00
 System Sizing Information, ZONE OFFICE WHOLEBUILDING - MD OFFICE C END_A - STORY GROUND PSZ-AC, Cooling, Sensible, 2101.73, 0.15691, 0.15691, KODIAK JULY .4% CONDNS DB=>MCWB, 7/21 05:00:00
 System Sizing Information, ZONE OFFICE WHOLEBUILDING - MD OFFICE C END_A - STORY GROUND PSZ-AC, Heating, Sensible, 6133.06, 0.16255, 0.16255, KODIAK ANN HTG 99.6% CONDNS DB, 1/21 08:00:00
 System Sizing Information, ZONE OFFICE WHOLEBUILDING - MD OFFICE C END_B - STORY GROUND PSZ-AC, Cooling, Sensible, 2080.80, 0.15482, 0.15482, KODIAK JULY .4% CONDNS DB=>MCWB, 7/21 05:00:00
 System Sizing Information, ZONE OFFICE WHOLEBUILDING - MD OFFICE C END_B - STORY GROUND PSZ-AC, Heating, Sensible, 6107.38, 0.16182, 0.16182, KODIAK ANN HTG 99.6% CONDNS DB, 1/21 08:00:00
! <Component Sizing Information>, Component Type, Component Name, Input Field Description, Value
 Component Sizing Information, AirTerminal:SingleDuct:ConstantVolume:NoReheat, ZONE OFFICE WHOLEBUILDING - MD OFFICE A  - STORY GROUND PSZ-AC DIFFUSER, Design Size Maximum Air Flow Rate [m3/s], 1.29786
 Component Sizing Information, AirTerminal:SingleDuct:ConstantVolume:NoReheat, ZONE OFFICE WHOLEBUILDING - MD OFFICE A END_A - STORY GROUND PSZ-AC DIFFUSER, Design Size Maximum Air Flow Rate [m3/s], 0.20570
 Component Sizing Information, AirTerminal:SingleDuct:ConstantVolume:NoReheat, ZONE OFFICE WHOLEBUILDING - MD OFFICE A END_B - STORY GROUND PSZ-AC DIFFUSER, Design Size Maximum Air Flow Rate [m3/s], 0.19937
 Component Sizing Information, AirTerminal:SingleDuct:ConstantVolume:NoReheat, ZONE OFFICE WHOLEBUILDING - MD OFFICE B  - STORY GROUND PSZ-AC DIFFUSER, Design Size Maximum Air Flow Rate [m3/s], 2.75945
 Component Sizing Information, AirTerminal:SingleDuct:ConstantVolume:NoReheat, ZONE OFFICE WHOLEBUILDING - MD OFFICE B END_A - STORY GROUND PSZ-AC DIFFUSER, Design Size Maximum Air Flow Rate [m3/s], 0.80285
 Component Sizing Information, AirTerminal:SingleDuct:ConstantVolume:NoReheat, ZONE OFFICE WHOLEBUILDING - MD OFFICE B END_B - STORY GROUND PSZ-AC DIFFUSER, Design Size Maximum Air Flow Rate [m3/s], 0.78792
 Component Sizing Information, AirTerminal:SingleDuct:ConstantVolume:NoReheat, ZONE OFFICE WHOLEBUILDING - MD OFFICE C  - STORY GROUND PSZ-AC DIFFUSER, Design Size Maximum Air Flow Rate [m3/s], 0.83568
 Component Sizing Information, AirTerminal:SingleDuct:ConstantVolume:NoReheat, ZONE OFFICE WHOLEBUILDING - MD OFFICE C END_A - STORY GROUND PSZ-AC DIFFUSER, Design Size Maximum Air Flow Rate [m3/s], 0.16255
 Component Sizing Information, AirTerminal:SingleDuct:ConstantVolume:NoReheat, ZONE OFFICE WHOLEBUILDING - MD OFFICE C END_B - STORY GROUND PSZ-AC DIFFUSER, Design Size Maximum Air Flow Rate [m3/s], 0.16182
 Component Sizing Information, AirLoopHVAC, ZONE OFFICE WHOLEBUILDING - MD OFFICE A  - STORY GROUND PSZ-AC, Sum of Air Terminal Maximum Heating Flow Rates [m3/s], 1.29786
 Component Sizing Information, AirLoopHVAC, ZONE OFFICE WHOLEBUILDING - MD OFFICE A  - STORY GROUND PSZ-AC, Sum of Air Terminal Minimum Heating Flow Rates [m3/s], 1.29786
 Component Sizing Information, AirLoopHVAC, ZONE OFFICE WHOLEBUILDING - MD OFFICE A  - STORY GROUND PSZ-AC, Sum of Air Terminal Maximum Flow Rates [m3/s], 1.29786
 Component Sizing Information, AirLoopHVAC, ZONE OFFICE WHOLEBUILDING - MD OFFICE A  - STORY GROUND PSZ-AC, Adjusted Heating Design Air Flow Rate [m3/s], 1.29786
 Component Sizing Information, AirLoopHVAC, ZONE OFFICE WHOLEBUILDING - MD OFFICE A  - STORY GROUND PSZ-AC, Adjusted Cooling Design Air Flow Rate [m3/s], 1.29786
 Component Sizing Information, AirLoopHVAC, ZONE OFFICE WHOLEBUILDING - MD OFFICE A  - STORY GROUND PSZ-AC, Adjusted Main Design Air Flow Rate [m3/s], 1.29786
 Component Sizing Information, AirLoopHVAC, ZONE OFFICE WHOLEBUILDING - MD OFFICE A  - STORY GROUND PSZ-AC, User Heating Air Flow Ratio [], 1.00000
 Component Sizing Information, AirLoopHVAC, ZONE OFFICE WHOLEBUILDING - MD OFFICE A  - STORY GROUND PSZ-AC, Calculated Heating Air Flow Ratio [], 1.00000
 Component Sizing Information, AirLoopHVAC, ZONE OFFICE WHOLEBUILDING - MD OFFICE A END_A - STORY GROUND PSZ-AC, Sum of Air Terminal Maximum Heating Flow Rates [m3/s], 0.20570
 Component Sizing Information, AirLoopHVAC, ZONE OFFICE WHOLEBUILDING - MD OFFICE A END_A - STORY GROUND PSZ-AC, Sum of Air Terminal Minimum Heating Flow Rates [m3/s], 0.20570
 Component Sizing Information, AirLoopHVAC, ZONE OFFICE WHOLEBUILDING - MD OFFICE A END_A - STORY GROUND PSZ-AC, Sum of Air Terminal Maximum Flow Rates [m3/s], 0.20570
 Component Sizing Information, AirLoopHVAC, ZONE OFFICE WHOLEBUILDING - MD OFFICE A END_A - STORY GROUND PSZ-AC, Adjusted Heating Design Air Flow Rate [m3/s], 0.20570
 Component Sizing Information, AirLoopHVAC, ZONE OFFICE WHOLEBUILDING - MD OFFICE A END_A - STORY GROUND PSZ-AC, Adjusted Cooling Design Air Flow Rate [m3/s], 0.20570
 Component Sizing Information, AirLoopHVAC, ZONE OFFICE WHOLEBUILDING - MD OFFICE A END_A - STORY GROUND PSZ-AC, Adjusted Main Design Air Flow Rate [m3/s], 0.20570
 Component Sizing Information, AirLoopHVAC, ZONE OFFICE WHOLEBUILDING - MD OFFICE A END_A - STORY GROUND PSZ-AC, User Heating Air Flow Ratio [], 1.00000
 Component Sizing Information, AirLoopHVAC, ZONE OFFICE WHOLEBUILDING - MD OFFICE A END_A - STORY GROUND PSZ-AC, Calculated Heating Air Flow Ratio [], 1.00000
 Component Sizing Information, AirLoopHVAC, ZONE OFFICE WHOLEBUILDING - MD OFFICE A END_B - STORY GROUND PSZ-AC, Sum of Air Terminal Maximum Heating Flow Rates [m3/s], 0.19937
 Component Sizing Information, AirLoopHVAC, ZONE OFFICE WHOLEBUILDING - MD OFFICE A END_B - STORY GROUND PSZ-AC, Sum of Air Terminal Minimum Heating Flow Rates [m3/s], 0.19937
 Component Sizing Information, AirLoopHVAC, ZONE OFFICE WHOLEBUILDING - MD OFFICE A END_B - STORY GROUND PSZ-AC, Sum of Air Terminal Maximum Flow Rates [m3/s], 0.19937
 Component Sizing Information, AirLoopHVAC, ZONE OFFICE WHOLEBUILDING - MD OFFICE A END_B - STORY GROUND PSZ-AC, Adjusted Heating Design Air Flow Rate [m3/s], 0.19937
 Component Sizing Information, AirLoopHVAC, ZONE OFFICE WHOLEBUILDING - MD OFFICE A END_B - STORY GROUND PSZ-AC, Adjusted Cooling Design Air Flow Rate [m3/s], 0.19937
 Component Sizing Information, AirLoopHVAC, ZONE OFFICE WHOLEBUILDING - MD OFFICE A END_B - STORY GROUND PSZ-AC, Adjusted Main Design Air Flow Rate [m3/s], 0.19937
 Component Sizing Information, AirLoopHVAC, ZONE OFFICE WHOLEBUILDING - MD OFFICE A END_B - STORY GROUND PSZ-AC, User Heating Air Flow Ratio [], 1.00000
 Component Sizing Information, AirLoopHVAC, ZONE OFFICE WHOLEBUILDING - MD OFFICE A END_B - STORY GROUND PSZ-AC, Calculated Heating Air Flow Ratio [], 1.00000
 Component Sizing Information, AirLoopHVAC, ZONE OFFICE WHOLEBUILDING - MD OFFICE B  - STORY GROUND PSZ-AC, Sum of Air Terminal Maximum Heating Flow Rates [m3/s], 2.75945
 Component Sizing Information, AirLoopHVAC, ZONE OFFICE WHOLEBUILDING - MD OFFICE B  - STORY GROUND PSZ-AC, Sum of Air Terminal Minimum Heating Flow Rates [m3/s], 2.75945
 Component Sizing Information, AirLoopHVAC, ZONE OFFICE WHOLEBUILDING - MD OFFICE B  - STORY GROUND PSZ-AC, Sum of Air Terminal Maximum Flow Rates [m3/s], 2.75945
 Component Sizing Information, AirLoopHVAC, ZONE OFFICE WHOLEBUILDING - MD OFFICE B  - STORY GROUND PSZ-AC, Adjusted Heating Design Air Flow Rate [m3/s], 2.75945
 Component Sizing Information, AirLoopHVAC, ZONE OFFICE WHOLEBUILDING - MD OFFICE B  - STORY GROUND PSZ-AC, Adjusted Cooling Design Air Flow Rate [m3/s], 2.75945
 Component Sizing Information, AirLoopHVAC, ZONE OFFICE WHOLEBUILDING - MD OFFICE B  - STORY GROUND PSZ-AC, Adjusted Main Design Air Flow Rate [m3/s], 2.75945
 Component Sizing Information, AirLoopHVAC, ZONE OFFICE WHOLEBUILDING - MD OFFICE B  - STORY GROUND PSZ-AC, User Heating Air Flow Ratio [], 1.00000
 Component Sizing Information, AirLoopHVAC, ZONE OFFICE WHOLEBUILDING - MD OFFICE B  - STORY GROUND PSZ-AC, Calculated Heating Air Flow Ratio [], 1.00000
 Component Sizing Information, AirLoopHVAC, ZONE OFFICE WHOLEBUILDING - MD OFFICE B END_A - STORY GROUND PSZ-AC, Sum of Air Terminal Maximum Heating Flow Rates [m3/s], 0.80285
 Component Sizing Information, AirLoopHVAC, ZONE OFFICE WHOLEBUILDING - MD OFFICE B END_A - STORY GROUND PSZ-AC, Sum of Air Terminal Minimum Heating Flow Rates [m3/s], 0.80285
 Component Sizing Information, AirLoopHVAC, ZONE OFFICE WHOLEBUILDING - MD OFFICE B END_A - STORY GROUND PSZ-AC, Sum of Air Terminal Maximum Flow Rates [m3/s], 0.80285
 Component Sizing Information, AirLoopHVAC, ZONE OFFICE WHOLEBUILDING - MD OFFICE B END_A - STORY GROUND PSZ-AC, Adjusted Heating Design Air Flow Rate [m3/s], 0.80285
 Component Sizing Information, AirLoopHVAC, ZONE OFFICE WHOLEBUILDING - MD OFFICE B END_A - STORY GROUND PSZ-AC, Adjusted Cooling Design Air Flow Rate [m3/s], 0.80285
 Component Sizing Information, AirLoopHVAC, ZONE OFFICE WHOLEBUILDING - MD OFFICE B END_A - STORY GROUND PSZ-AC, Adjusted Main Design Air Flow Rate [m3/s], 0.80285
 Component Sizing Information, AirLoopHVAC, ZONE OFFICE WHOLEBUILDING - MD OFFICE B END_A - STORY GROUND PSZ-AC, User Heating Air Flow Ratio [], 1.00000
 Component Sizing Information, AirLoopHVAC, ZONE OFFICE WHOLEBUILDING - MD OFFICE B END_A - STORY GROUND PSZ-AC, Calculated Heating Air Flow Ratio [], 1.00000
 Component Sizing Information, AirLoopHVAC, ZONE OFFICE WHOLEBUILDING - MD OFFICE B END_B - STORY GROUND PSZ-AC, Sum of Air Terminal Maximum Heating Flow Rates [m3/s], 0.78792
 Component Sizing Information, AirLoopHVAC, ZONE OFFICE WHOLEBUILDING - MD OFFICE B END_B - STORY GROUND PSZ-AC, Sum of Air Terminal Minimum Heating Flow Rates [m3/s], 0.78792
 Component Sizing Information, AirLoopHVAC, ZONE OFFICE WHOLEBUILDING - MD OFFICE B END_B - STORY GROUND PSZ-AC, Sum of Air Terminal Maximum Flow Rates [m3/s], 0.78792
 Component Sizing Information, AirLoopHVAC, ZONE OFFICE WHOLEBUILDING - MD OFFICE B END_B - STORY GROUND PSZ-AC, Adjusted Heating Design Air Flow Rate [m3/s], 0.78792
 Component Sizing Information, AirLoopHVAC, ZONE OFFICE WHOLEBUILDING - MD OFFICE B END_B - STORY GROUND PSZ-AC, Adjusted Cooling Design Air Flow Rate [m3/s], 0.81101
 Component Sizing Information, AirLoopHVAC, ZONE OFFICE WHOLEBUILDING - MD OFFICE B END_B - STORY GROUND PSZ-AC, Adjusted Main Design Air Flow Rate [m3/s], 0.81101
 Component Sizing Information, AirLoopHVAC, ZONE OFFICE WHOLEBUILDING - MD OFFICE B END_B - STORY GROUND PSZ-AC, User Heating Air Flow Ratio [], 1.00000
 Component Sizing Information, AirLoopHVAC, ZONE OFFICE WHOLEBUILDING - MD OFFICE B END_B - STORY GROUND PSZ-AC, Calculated Heating Air Flow Ratio [], 0.97153
 Component Sizing Information, AirLoopHVAC, ZONE OFFICE WHOLEBUILDING - MD OFFICE C  - STORY GROUND PSZ-AC, Sum of Air Terminal Maximum Heating Flow Rates [m3/s], 0.83568
 Component Sizing Information, AirLoopHVAC, ZONE OFFICE WHOLEBUILDING - MD OFFICE C  - STORY GROUND PSZ-AC, Sum of Air Terminal Minimum Heating Flow Rates [m3/s], 0.83568
 Component Sizing Information, AirLoopHVAC, ZONE OFFICE WHOLEBUILDING - MD OFFICE C  - STORY GROUND PSZ-AC, Sum of Air Terminal Maximum Flow Rates [m3/s], 0.83568
 Component Sizing Information, AirLoopHVAC, ZONE OFFICE WHOLEBUILDING - MD OFFICE C  - STORY GROUND PSZ-AC, Adjusted Heating Design Air Flow Rate [m3/s], 0.83568
 Component Sizing Information, AirLoopHVAC, ZONE OFFICE WHOLEBUILDING - MD OFFICE C  - STORY GROUND PSZ-AC, Adjusted Cooling Design Air Flow Rate [m3/s], 0.83568
 Component Sizing Information, AirLoopHVAC, ZONE OFFICE WHOLEBUILDING - MD OFFICE C  - STORY GROUND PSZ-AC, Adjusted Main Design Air Flow Rate [m3/s], 0.83568
 Component Sizing Information, AirLoopHVAC, ZONE OFFICE WHOLEBUILDING - MD OFFICE C  - STORY GROUND PSZ-AC, User Heating Air Flow Ratio [], 1.00000
 Component Sizing Information, AirLoopHVAC, ZONE OFFICE WHOLEBUILDING - MD OFFICE C  - STORY GROUND PSZ-AC, Calculated Heating Air Flow Ratio [], 1.00000
 Component Sizing Information, AirLoopHVAC, ZONE OFFICE WHOLEBUILDING - MD OFFICE C END_A - STORY GROUND PSZ-AC, Sum of Air Terminal Maximum Heating Flow Rates [m3/s], 0.16255
 Component Sizing Information, AirLoopHVAC, ZONE OFFICE WHOLEBUILDING - MD OFFICE C END_A - STORY GROUND PSZ-AC, Sum of Air Terminal Minimum Heating Flow Rates [m3/s], 0.16255
 Component Sizing Information, AirLoopHVAC, ZONE OFFICE WHOLEBUILDING - MD OFFICE C END_A - STORY GROUND PSZ-AC, Sum of Air Terminal Maximum Flow Rates [m3/s], 0.16255
 Component Sizing Information, AirLoopHVAC, ZONE OFFICE WHOLEBUILDING - MD OFFICE C END_A - STORY GROUND PSZ-AC, Adjusted Heating Design Air Flow Rate [m3/s], 0.16255
 Component Sizing Information, AirLoopHVAC, ZONE OFFICE WHOLEBUILDING - MD OFFICE C END_A - STORY GROUND PSZ-AC, Adjusted Cooling Design Air Flow Rate [m3/s], 0.16255
 Component Sizing Information, AirLoopHVAC, ZONE OFFICE WHOLEBUILDING - MD OFFICE C END_A - STORY GROUND PSZ-AC, Adjusted Main Design Air Flow Rate [m3/s], 0.16255
 Component Sizing Information, AirLoopHVAC, ZONE OFFICE WHOLEBUILDING - MD OFFICE C END_A - STORY GROUND PSZ-AC, User Heating Air Flow Ratio [], 1.00000
 Component Sizing Information, AirLoopHVAC, ZONE OFFICE WHOLEBUILDING - MD OFFICE C END_A - STORY GROUND PSZ-AC, Calculated Heating Air Flow Ratio [], 1.00000
 Component Sizing Information, AirLoopHVAC, ZONE OFFICE WHOLEBUILDING - MD OFFICE C END_B - STORY GROUND PSZ-AC, Sum of Air Terminal Maximum Heating Flow Rates [m3/s], 0.16182
 Component Sizing Information, AirLoopHVAC, ZONE OFFICE WHOLEBUILDING - MD OFFICE C END_B - STORY GROUND PSZ-AC, Sum of Air Terminal Minimum Heating Flow Rates [m3/s], 0.16182
 Component Sizing Information, AirLoopHVAC, ZONE OFFICE WHOLEBUILDING - MD OFFICE C END_B - STORY GROUND PSZ-AC, Sum of Air Terminal Maximum Flow Rates [m3/s], 0.16182
 Component Sizing Information, AirLoopHVAC, ZONE OFFICE WHOLEBUILDING - MD OFFICE C END_B - STORY GROUND PSZ-AC, Adjusted Heating Design Air Flow Rate [m3/s], 0.16182
 Component Sizing Information, AirLoopHVAC, ZONE OFFICE WHOLEBUILDING - MD OFFICE C END_B - STORY GROUND PSZ-AC, Adjusted Cooling Design Air Flow Rate [m3/s], 0.16182
 Component Sizing Information, AirLoopHVAC, ZONE OFFICE WHOLEBUILDING - MD OFFICE C END_B - STORY GROUND PSZ-AC, Adjusted Main Design Air Flow Rate [m3/s], 0.16182
 Component Sizing Information, AirLoopHVAC, ZONE OFFICE WHOLEBUILDING - MD OFFICE C END_B - STORY GROUND PSZ-AC, User Heating Air Flow Ratio [], 1.00000
 Component Sizing Information, AirLoopHVAC, ZONE OFFICE WHOLEBUILDING - MD OFFICE C END_B - STORY GROUND PSZ-AC, Calculated Heating Air Flow Ratio [], 1.00000
 Component Sizing Information, AirLoopHVAC, ZONE OFFICE WHOLEBUILDING - MD OFFICE A  - STORY GROUND PSZ-AC, Design Supply Air Flow Rate [m3/s], 1.29786
 Component Sizing Information, AirLoopHVAC, ZONE OFFICE WHOLEBUILDING - MD OFFICE A END_A - STORY GROUND PSZ-AC, Design Supply Air Flow Rate [m3/s], 0.20570
 Component Sizing Information, AirLoopHVAC, ZONE OFFICE WHOLEBUILDING - MD OFFICE A END_B - STORY GROUND PSZ-AC, Design Supply Air Flow Rate [m3/s], 0.19937
 Component Sizing Information, AirLoopHVAC, ZONE OFFICE WHOLEBUILDING - MD OFFICE B  - STORY GROUND PSZ-AC, Design Supply Air Flow Rate [m3/s], 2.75945
 Component Sizing Information, AirLoopHVAC, ZONE OFFICE WHOLEBUILDING - MD OFFICE B END_A - STORY GROUND PSZ-AC, Design Supply Air Flow Rate [m3/s], 0.80285
 Component Sizing Information, AirLoopHVAC, ZONE OFFICE WHOLEBUILDING - MD OFFICE B END_B - STORY GROUND PSZ-AC, Design Supply Air Flow Rate [m3/s], 0.81101
 Component Sizing Information, AirLoopHVAC, ZONE OFFICE WHOLEBUILDING - MD OFFICE C  - STORY GROUND PSZ-AC, Design Supply Air Flow Rate [m3/s], 0.83568
 Component Sizing Information, AirLoopHVAC, ZONE OFFICE WHOLEBUILDING - MD OFFICE C END_A - STORY GROUND PSZ-AC, Design Supply Air Flow Rate [m3/s], 0.16255
 Component Sizing Information, AirLoopHVAC, ZONE OFFICE WHOLEBUILDING - MD OFFICE C END_B - STORY GROUND PSZ-AC, Design Supply Air Flow Rate [m3/s], 0.16182
!<Controller:MechanicalVentilation>,Name,Availability Schedule Name,Demand Controlled Ventilation {Yes/No},System Outdoor Air Method,Zone Maximum Outdoor Air Fraction,Number of Zones,Zone Name,DSOA Name,DSZAD Name
 Controller:MechanicalVentilation,CONTROLLER MECHANICAL VENTILATION 1,ZONE OFFICE WHOLEBUILDING - MD OFFICE A  - STORY GROUND PSZ-AC OCC SCH,No,ZoneSum,1.00,1,ZONE OFFICE WHOLEBUILDING - MD OFFICE A  - STORY GROUND,OFFICE WHOLEBUILDING - MD OFFICE VENTILATION,
 Controller:MechanicalVentilation,CONTROLLER MECHANICAL VENTILATION 2,ZONE OFFICE WHOLEBUILDING - MD OFFICE A END_A - STORY GROUND PSZ-AC OCC SCH,No,ZoneSum,1.00,1,ZONE OFFICE WHOLEBUILDING - MD OFFICE A END_A - STORY GROUND,OFFICE WHOLEBUILDING - MD OFFICE VENTILATION,
 Controller:MechanicalVentilation,CONTROLLER MECHANICAL VENTILATION 3,ZONE OFFICE WHOLEBUILDING - MD OFFICE A END_B - STORY GROUND PSZ-AC OCC SCH,No,ZoneSum,1.00,1,ZONE OFFICE WHOLEBUILDING - MD OFFICE A END_B - STORY GROUND,OFFICE WHOLEBUILDING - MD OFFICE VENTILATION,
 Controller:MechanicalVentilation,CONTROLLER MECHANICAL VENTILATION 4,ZONE OFFICE WHOLEBUILDING - MD OFFICE B  - STORY GROUND PSZ-AC OCC SCH,No,ZoneSum,1.00,1,ZONE OFFICE WHOLEBUILDING - MD OFFICE B  - STORY GROUND,OFFICE WHOLEBUILDING - MD OFFICE VENTILATION,
 Controller:MechanicalVentilation,CONTROLLER MECHANICAL VENTILATION 5,ZONE OFFICE WHOLEBUILDING - MD OFFICE B END_A - STORY GROUND PSZ-AC OCC SCH,No,ZoneSum,1.00,1,ZONE OFFICE WHOLEBUILDING - MD OFFICE B END_A - STORY GROUND,OFFICE WHOLEBUILDING - MD OFFICE VENTILATION,
 Controller:MechanicalVentilation,CONTROLLER MECHANICAL VENTILATION 6,ZONE OFFICE WHOLEBUILDING - MD OFFICE B END_B - STORY GROUND PSZ-AC OCC SCH,No,ZoneSum,1.00,1,ZONE OFFICE WHOLEBUILDING - MD OFFICE B END_B - STORY GROUND,OFFICE WHOLEBUILDING - MD OFFICE VENTILATION,
 Controller:MechanicalVentilation,CONTROLLER MECHANICAL VENTILATION 7,ZONE OFFICE WHOLEBUILDING - MD OFFICE C  - STORY GROUND PSZ-AC OCC SCH,No,ZoneSum,1.00,1,ZONE OFFICE WHOLEBUILDING - MD OFFICE C  - STORY GROUND,OFFICE WHOLEBUILDING - MD OFFICE VENTILATION,
 Controller:MechanicalVentilation,CONTROLLER MECHANICAL VENTILATION 8,ZONE OFFICE WHOLEBUILDING - MD OFFICE C END_A - STORY GROUND PSZ-AC OCC SCH,No,ZoneSum,1.00,1,ZONE OFFICE WHOLEBUILDING - MD OFFICE C END_A - STORY GROUND,OFFICE WHOLEBUILDING - MD OFFICE VENTILATION,
 Controller:MechanicalVentilation,CONTROLLER MECHANICAL VENTILATION 9,ZONE OFFICE WHOLEBUILDING - MD OFFICE C END_B - STORY GROUND PSZ-AC OCC SCH,No,ZoneSum,1.00,1,ZONE OFFICE WHOLEBUILDING - MD OFFICE C END_B - STORY GROUND,OFFICE WHOLEBUILDING - MD OFFICE VENTILATION,
 Component Sizing Information, Controller:OutdoorAir, ZONE OFFICE WHOLEBUILDING - MD OFFICE A  - STORY GROUND PSZ-AC OA SYSTEM CONTROLLER, Maximum Outdoor Air Flow Rate [m3/s], 1.29786
 Component Sizing Information, Controller:OutdoorAir, ZONE OFFICE WHOLEBUILDING - MD OFFICE A  - STORY GROUND PSZ-AC OA SYSTEM CONTROLLER, Minimum Outdoor Air Flow Rate [m3/s], 8.54916E-002
 Component Sizing Information, AirLoopHVAC:UnitarySystem, ZONE OFFICE WHOLEBUILDING - MD OFFICE A  - STORY GROUND PSZ-AC UNITARY AC, Design Size Supply Air Flow Rate [m3/s], 1.29786
 Component Sizing Information, AirLoopHVAC:UnitarySystem, ZONE OFFICE WHOLEBUILDING - MD OFFICE A  - STORY GROUND PSZ-AC UNITARY AC, Design Size Heating Supply Air Flow Rate [m3/s], 1.29786
 Component Sizing Information, AirLoopHVAC:UnitarySystem, ZONE OFFICE WHOLEBUILDING - MD OFFICE A  - STORY GROUND PSZ-AC UNITARY AC, Design Size Cooling Supply Air Flow Rate [m3/s], 1.29786
 Component Sizing Information, AirLoopHVAC:UnitarySystem, ZONE OFFICE WHOLEBUILDING - MD OFFICE A  - STORY GROUND PSZ-AC UNITARY AC, User-Specified No Load Supply Air Flow Rate [m3/s], 0.00000
 Component Sizing Information, AirLoopHVAC:UnitarySystem, ZONE OFFICE WHOLEBUILDING - MD OFFICE A  - STORY GROUND PSZ-AC UNITARY AC, Design Size Nominal Cooling Capacity [W], 21484.18120
 Component Sizing Information, Coil:Heating:Water, ZONE OFFICE WHOLEBUILDING - MD OFFICE A  - STORY GROUND PSZ-AC WATER HTG COIL, Design Size Rated Capacity [W], 49491.10289
 Component Sizing Information, Coil:Heating:Water, ZONE OFFICE WHOLEBUILDING - MD OFFICE A  - STORY GROUND PSZ-AC WATER HTG COIL, Design Size Maximum Water Flow Rate [m3/s], 1.08251E-003
 Component Sizing Information, Coil:Heating:Water, ZONE OFFICE WHOLEBUILDING - MD OFFICE A  - STORY GROUND PSZ-AC WATER HTG COIL, Design Size U-Factor Times Area Value [W/K], 1228.41529
! <Water Heating Coil Capacity Information>,Component Type,Name,Nominal Total Capacity {W}
Water Heating Coil Capacity Information,Coil:Heating:Water,ZONE OFFICE WHOLEBUILDING - MD OFFICE A  - STORY GROUND PSZ-AC WATER HTG COIL,51005.42
 Component Sizing Information, AirLoopHVAC:UnitarySystem, ZONE OFFICE WHOLEBUILDING - MD OFFICE A  - STORY GROUND PSZ-AC UNITARY AC, Design Size Nominal Heating Capacity [W], 49491.10289
 Component Sizing Information, AirLoopHVAC:UnitarySystem, ZONE OFFICE WHOLEBUILDING - MD OFFICE A  - STORY GROUND PSZ-AC UNITARY AC, Design Size Maximum Supply Air Temperature [C], 50.00000
 Component Sizing Information, AirLoopHVAC:UnitarySystem, ZONE OFFICE WHOLEBUILDING - MD OFFICE A  - STORY GROUND PSZ-AC UNITARY AC, User-Specified Maximum Supply Air Temperature [C], 80.00000
 Component Sizing Information, AirLoopHVAC:UnitarySystem, ZONE OFFICE WHOLEBUILDING - MD OFFICE A  - STORY GROUND PSZ-AC UNITARY AC, User-Specified Supplemental Heating Coil Nominal Capacity [W], 49491.10289
 Component Sizing Information, AirLoopHVAC:UnitarySystem, ZONE OFFICE WHOLEBUILDING - MD OFFICE A  - STORY GROUND PSZ-AC UNITARY AC, Fraction of Supply Air Flow That Goes Through the Controlling Zone, 1.00000
 Component Sizing Information, Coil:Cooling:DX:SingleSpeed, ZONE OFFICE WHOLEBUILDING - MD OFFICE A  - STORY GROUND PSZ-AC 1SPD DX AC CLG COIL 72KBTU/HR 11.0EER, Design Size Rated Air Flow Rate [m3/s], 1.29786
 Component Sizing Information, Coil:Cooling:DX:SingleSpeed, ZONE OFFICE WHOLEBUILDING - MD OFFICE A  - STORY GROUND PSZ-AC 1SPD DX AC CLG COIL 72KBTU/HR 11.0EER, Design Size Gross Rated Total Cooling Capacity [W], 21484.18120
 Component Sizing Information, Coil:Cooling:DX:SingleSpeed, ZONE OFFICE WHOLEBUILDING - MD OFFICE A  - STORY GROUND PSZ-AC 1SPD DX AC CLG COIL 72KBTU/HR 11.0EER, Design Size Gross Rated Sensible Heat Ratio, 0.80066
! <DX Cooling Coil Standard Rating Information>, Component Type, Component Name, Standard Rating (Net) Cooling Capacity {W}, Standard Rated Net COP {W/W}, EER {Btu/W-h}, SEER User {Btu/W-h}, SEER Standard {Btu/W-h}, IEER {Btu/W-h}
 DX Cooling Coil Standard Rating Information, Coil:Cooling:DX:SingleSpeed, ZONE OFFICE WHOLEBUILDING - MD OFFICE A  - STORY GROUND PSZ-AC 1SPD DX AC CLG COIL 72KBTU/HR 11.0EER, 20467.0, 3.07, 10.48, 10.38, 10.38, 10.32
 DX Cooling Coil Standard Rating Information, Coil:Cooling:DX:SingleSpeed, ZONE OFFICE WHOLEBUILDING - MD OFFICE A  - STORY GROUND PSZ-AC 1SPD DX AC CLG COIL 72KBTU/HR 11.0EER, 20258.0, 2.95, 10.06, 9.94, 10.23,  
 Component Sizing Information, Fan:OnOff, ZONE OFFICE WHOLEBUILDING - MD OFFICE A  - STORY GROUND PSZ-AC FAN, Design Size Maximum Flow Rate [m3/s], 1.29786
 Component Sizing Information, Coil:Heating:Electric, ZONE OFFICE WHOLEBUILDING - MD OFFICE A  - STORY GROUND PSZ-AC ELECTRIC BACKUP HTG COIL, Design Size Nominal Capacity [W], 49491.10289
 Component Sizing Information, Controller:OutdoorAir, ZONE OFFICE WHOLEBUILDING - MD OFFICE A END_A - STORY GROUND PSZ-AC OA SYSTEM CONTROLLER, Maximum Outdoor Air Flow Rate [m3/s], 0.20570
 Component Sizing Information, Controller:OutdoorAir, ZONE OFFICE WHOLEBUILDING - MD OFFICE A END_A - STORY GROUND PSZ-AC OA SYSTEM CONTROLLER, Minimum Outdoor Air Flow Rate [m3/s], 9.02599E-003
 Component Sizing Information, AirLoopHVAC:UnitarySystem, ZONE OFFICE WHOLEBUILDING - MD OFFICE A END_A - STORY GROUND PSZ-AC UNITARY AC, Design Size Supply Air Flow Rate [m3/s], 0.20570
 Component Sizing Information, AirLoopHVAC:UnitarySystem, ZONE OFFICE WHOLEBUILDING - MD OFFICE A END_A - STORY GROUND PSZ-AC UNITARY AC, Design Size Heating Supply Air Flow Rate [m3/s], 0.20570
 Component Sizing Information, AirLoopHVAC:UnitarySystem, ZONE OFFICE WHOLEBUILDING - MD OFFICE A END_A - STORY GROUND PSZ-AC UNITARY AC, Design Size Cooling Supply Air Flow Rate [m3/s], 0.20570
 Component Sizing Information, AirLoopHVAC:UnitarySystem, ZONE OFFICE WHOLEBUILDING - MD OFFICE A END_A - STORY GROUND PSZ-AC UNITARY AC, User-Specified No Load Supply Air Flow Rate [m3/s], 0.00000
 Component Sizing Information, AirLoopHVAC:UnitarySystem, ZONE OFFICE WHOLEBUILDING - MD OFFICE A END_A - STORY GROUND PSZ-AC UNITARY AC, Design Size Nominal Cooling Capacity [W], 3405.09011
 Component Sizing Information, Coil:Heating:Water, ZONE OFFICE WHOLEBUILDING - MD OFFICE A END_A - STORY GROUND PSZ-AC WATER HTG COIL, Design Size Rated Capacity [W], 7664.35347
 Component Sizing Information, Coil:Heating:Water, ZONE OFFICE WHOLEBUILDING - MD OFFICE A END_A - STORY GROUND PSZ-AC WATER HTG COIL, Design Size Maximum Water Flow Rate [m3/s], 1.67641E-004
 Component Sizing Information, Coil:Heating:Water, ZONE OFFICE WHOLEBUILDING - MD OFFICE A END_A - STORY GROUND PSZ-AC WATER HTG COIL, Design Size U-Factor Times Area Value [W/K], 191.70495
Water Heating Coil Capacity Information,Coil:Heating:Water,ZONE OFFICE WHOLEBUILDING - MD OFFICE A END_A - STORY GROUND PSZ-AC WATER HTG COIL,7987.98
 Component Sizing Information, AirLoopHVAC:UnitarySystem, ZONE OFFICE WHOLEBUILDING - MD OFFICE A END_A - STORY GROUND PSZ-AC UNITARY AC, Design Size Nominal Heating Capacity [W], 7664.35347
 Component Sizing Information, AirLoopHVAC:UnitarySystem, ZONE OFFICE WHOLEBUILDING - MD OFFICE A END_A - STORY GROUND PSZ-AC UNITARY AC, Design Size Maximum Supply Air Temperature [C], 50.00000
 Component Sizing Information, AirLoopHVAC:UnitarySystem, ZONE OFFICE WHOLEBUILDING - MD OFFICE A END_A - STORY GROUND PSZ-AC UNITARY AC, User-Specified Maximum Supply Air Temperature [C], 80.00000
 Component Sizing Information, AirLoopHVAC:UnitarySystem, ZONE OFFICE WHOLEBUILDING - MD OFFICE A END_A - STORY GROUND PSZ-AC UNITARY AC, User-Specified Supplemental Heating Coil Nominal Capacity [W], 7664.35347
 Component Sizing Information, AirLoopHVAC:UnitarySystem, ZONE OFFICE WHOLEBUILDING - MD OFFICE A END_A - STORY GROUND PSZ-AC UNITARY AC, Fraction of Supply Air Flow That Goes Through the Controlling Zone, 1.00000
 Component Sizing Information, Coil:Cooling:DX:SingleSpeed, ZONE OFFICE WHOLEBUILDING - MD OFFICE A END_A - STORY GROUND PSZ-AC 1SPD DX AC CLG COIL 12KBTU/HR 14.0SEER, Design Size Rated Air Flow Rate [m3/s], 0.20570
 Component Sizing Information, Coil:Cooling:DX:SingleSpeed, ZONE OFFICE WHOLEBUILDING - MD OFFICE A END_A - STORY GROUND PSZ-AC 1SPD DX AC CLG COIL 12KBTU/HR 14.0SEER, Design Size Gross Rated Total Cooling Capacity [W], 3405.09011
 Component Sizing Information, Coil:Cooling:DX:SingleSpeed, ZONE OFFICE WHOLEBUILDING - MD OFFICE A END_A - STORY GROUND PSZ-AC 1SPD DX AC CLG COIL 12KBTU/HR 14.0SEER, Design Size Gross Rated Sensible Heat Ratio, 0.80066
 DX Cooling Coil Standard Rating Information, Coil:Cooling:DX:SingleSpeed, ZONE OFFICE WHOLEBUILDING - MD OFFICE A END_A - STORY GROUND PSZ-AC 1SPD DX AC CLG COIL 12KBTU/HR 14.0SEER, 3243.9, 3.29, 11.22, 11.10, 11.10, 10.96
 DX Cooling Coil Standard Rating Information, Coil:Cooling:DX:SingleSpeed, ZONE OFFICE WHOLEBUILDING - MD OFFICE A END_A - STORY GROUND PSZ-AC 1SPD DX AC CLG COIL 12KBTU/HR 14.0SEER, 3210.7, 3.15, 10.75, 10.61, 10.91,  
 Component Sizing Information, Fan:OnOff, ZONE OFFICE WHOLEBUILDING - MD OFFICE A END_A - STORY GROUND PSZ-AC FAN, Design Size Maximum Flow Rate [m3/s], 0.20570
 Component Sizing Information, Coil:Heating:Electric, ZONE OFFICE WHOLEBUILDING - MD OFFICE A END_A - STORY GROUND PSZ-AC ELECTRIC BACKUP HTG COIL, Design Size Nominal Capacity [W], 7664.35347
 Component Sizing Information, Controller:OutdoorAir, ZONE OFFICE WHOLEBUILDING - MD OFFICE A END_B - STORY GROUND PSZ-AC OA SYSTEM CONTROLLER, Maximum Outdoor Air Flow Rate [m3/s], 0.19937
 Component Sizing Information, Controller:OutdoorAir, ZONE OFFICE WHOLEBUILDING - MD OFFICE A END_B - STORY GROUND PSZ-AC OA SYSTEM CONTROLLER, Minimum Outdoor Air Flow Rate [m3/s], 9.02599E-003
 Component Sizing Information, AirLoopHVAC:UnitarySystem, ZONE OFFICE WHOLEBUILDING - MD OFFICE A END_B - STORY GROUND PSZ-AC UNITARY AC, Design Size Supply Air Flow Rate [m3/s], 0.19937
 Component Sizing Information, AirLoopHVAC:UnitarySystem, ZONE OFFICE WHOLEBUILDING - MD OFFICE A END_B - STORY GROUND PSZ-AC UNITARY AC, Design Size Heating Supply Air Flow Rate [m3/s], 0.19937
 Component Sizing Information, AirLoopHVAC:UnitarySystem, ZONE OFFICE WHOLEBUILDING - MD OFFICE A END_B - STORY GROUND PSZ-AC UNITARY AC, Design Size Cooling Supply Air Flow Rate [m3/s], 0.19937
 Component Sizing Information, AirLoopHVAC:UnitarySystem, ZONE OFFICE WHOLEBUILDING - MD OFFICE A END_B - STORY GROUND PSZ-AC UNITARY AC, User-Specified No Load Supply Air Flow Rate [m3/s], 0.00000
 Component Sizing Information, AirLoopHVAC:UnitarySystem, ZONE OFFICE WHOLEBUILDING - MD OFFICE A END_B - STORY GROUND PSZ-AC UNITARY AC, Design Size Nominal Cooling Capacity [W], 3300.26268
 Component Sizing Information, Coil:Heating:Water, ZONE OFFICE WHOLEBUILDING - MD OFFICE A END_B - STORY GROUND PSZ-AC WATER HTG COIL, Design Size Rated Capacity [W], 7439.61127
 Component Sizing Information, Coil:Heating:Water, ZONE OFFICE WHOLEBUILDING - MD OFFICE A END_B - STORY GROUND PSZ-AC WATER HTG COIL, Design Size Maximum Water Flow Rate [m3/s], 1.62725E-004
 Component Sizing Information, Coil:Heating:Water, ZONE OFFICE WHOLEBUILDING - MD OFFICE A END_B - STORY GROUND PSZ-AC WATER HTG COIL, Design Size U-Factor Times Area Value [W/K], 185.98917
Water Heating Coil Capacity Information,Coil:Heating:Water,ZONE OFFICE WHOLEBUILDING - MD OFFICE A END_B - STORY GROUND PSZ-AC WATER HTG COIL,7748.08
 Component Sizing Information, AirLoopHVAC:UnitarySystem, ZONE OFFICE WHOLEBUILDING - MD OFFICE A END_B - STORY GROUND PSZ-AC UNITARY AC, Design Size Nominal Heating Capacity [W], 7439.61127
 Component Sizing Information, AirLoopHVAC:UnitarySystem, ZONE OFFICE WHOLEBUILDING - MD OFFICE A END_B - STORY GROUND PSZ-AC UNITARY AC, Design Size Maximum Supply Air Temperature [C], 50.00000
 Component Sizing Information, AirLoopHVAC:UnitarySystem, ZONE OFFICE WHOLEBUILDING - MD OFFICE A END_B - STORY GROUND PSZ-AC UNITARY AC, User-Specified Maximum Supply Air Temperature [C], 80.00000
 Component Sizing Information, AirLoopHVAC:UnitarySystem, ZONE OFFICE WHOLEBUILDING - MD OFFICE A END_B - STORY GROUND PSZ-AC UNITARY AC, User-Specified Supplemental Heating Coil Nominal Capacity [W], 7439.61127
 Component Sizing Information, AirLoopHVAC:UnitarySystem, ZONE OFFICE WHOLEBUILDING - MD OFFICE A END_B - STORY GROUND PSZ-AC UNITARY AC, Fraction of Supply Air Flow That Goes Through the Controlling Zone, 1.00000
 Component Sizing Information, Coil:Cooling:DX:SingleSpeed, ZONE OFFICE WHOLEBUILDING - MD OFFICE A END_B - STORY GROUND PSZ-AC 1SPD DX AC CLG COIL 11KBTU/HR 14.0SEER, Design Size Rated Air Flow Rate [m3/s], 0.19937
 Component Sizing Information, Coil:Cooling:DX:SingleSpeed, ZONE OFFICE WHOLEBUILDING - MD OFFICE A END_B - STORY GROUND PSZ-AC 1SPD DX AC CLG COIL 11KBTU/HR 14.0SEER, Design Size Gross Rated Total Cooling Capacity [W], 3300.26268
 Component Sizing Information, Coil:Cooling:DX:SingleSpeed, ZONE OFFICE WHOLEBUILDING - MD OFFICE A END_B - STORY GROUND PSZ-AC 1SPD DX AC CLG COIL 11KBTU/HR 14.0SEER, Design Size Gross Rated Sensible Heat Ratio, 0.80066
 DX Cooling Coil Standard Rating Information, Coil:Cooling:DX:SingleSpeed, ZONE OFFICE WHOLEBUILDING - MD OFFICE A END_B - STORY GROUND PSZ-AC 1SPD DX AC CLG COIL 11KBTU/HR 14.0SEER, 3144.0, 3.29, 11.22, 11.10, 11.10, 10.96
 DX Cooling Coil Standard Rating Information, Coil:Cooling:DX:SingleSpeed, ZONE OFFICE WHOLEBUILDING - MD OFFICE A END_B - STORY GROUND PSZ-AC 1SPD DX AC CLG COIL 11KBTU/HR 14.0SEER, 3111.9, 3.15, 10.75, 10.61, 10.91,  
 Component Sizing Information, Fan:OnOff, ZONE OFFICE WHOLEBUILDING - MD OFFICE A END_B - STORY GROUND PSZ-AC FAN, Design Size Maximum Flow Rate [m3/s], 0.19937
 Component Sizing Information, Coil:Heating:Electric, ZONE OFFICE WHOLEBUILDING - MD OFFICE A END_B - STORY GROUND PSZ-AC ELECTRIC BACKUP HTG COIL, Design Size Nominal Capacity [W], 7439.61127
[...]
 Component Sizing Information, Coil:Cooling:DX:SingleSpeed, ZONE OFFICE WHOLEBUILDING - MD OFFICE B END_B - STORY GROUND PSZ-AC 1SPD DX AC CLG COIL 44KBTU/HR 14.0SEER, Design Size Gross Rated Sensible Heat Ratio, 0.80066
 DX Cooling Coil Standard Rating Information, Coil:Cooling:DX:SingleSpeed, ZONE OFFICE WHOLEBUILDING - MD OFFICE B END_B - STORY GROUND PSZ-AC 1SPD DX AC CLG COIL 44KBTU/HR 14.0SEER, 12789.4, 3.29, 11.22, 11.10, 11.10, 10.96
 DX Cooling Coil Standard Rating Information, Coil:Cooling:DX:SingleSpeed, ZONE OFFICE WHOLEBUILDING - MD OFFICE B END_B - STORY GROUND PSZ-AC 1SPD DX AC CLG COIL 44KBTU/HR 14.0SEER, 12658.8, 3.15, 10.75, 10.61, 10.91,  
 Component Sizing Information, Fan:OnOff, ZONE OFFICE WHOLEBUILDING - MD OFFICE B END_B - STORY GROUND PSZ-AC FAN, Design Size Maximum Flow Rate [m3/s], 0.81101
 Component Sizing Information, Coil:Heating:Electric, ZONE OFFICE WHOLEBUILDING - MD OFFICE B END_B - STORY GROUND PSZ-AC ELECTRIC BACKUP HTG COIL, Design Size Nominal Capacity [W], 30008.16090
 Component Sizing Information, Controller:OutdoorAir, ZONE OFFICE WHOLEBUILDING - MD OFFICE C  - STORY GROUND PSZ-AC OA SYSTEM CONTROLLER, Maximum Outdoor Air Flow Rate [m3/s], 0.83568
 Component Sizing Information, Controller:OutdoorAir, ZONE OFFICE WHOLEBUILDING - MD OFFICE C  - STORY GROUND PSZ-AC OA SYSTEM CONTROLLER, Minimum Outdoor Air Flow Rate [m3/s], 8.54916E-002
 Component Sizing Information, AirLoopHVAC:UnitarySystem, ZONE OFFICE WHOLEBUILDING - MD OFFICE C  - STORY GROUND PSZ-AC UNITARY AC, Design Size Supply Air Flow Rate [m3/s], 0.83568
 Component Sizing Information, AirLoopHVAC:UnitarySystem, ZONE OFFICE WHOLEBUILDING - MD OFFICE C  - STORY GROUND PSZ-AC UNITARY AC, Design Size Heating Supply Air Flow Rate [m3/s], 0.83568
 Component Sizing Information, AirLoopHVAC:UnitarySystem, ZONE OFFICE WHOLEBUILDING - MD OFFICE C  - STORY GROUND PSZ-AC UNITARY AC, Design Size Cooling Supply Air Flow Rate [m3/s], 0.83568
 Component Sizing Information, AirLoopHVAC:UnitarySystem, ZONE OFFICE WHOLEBUILDING - MD OFFICE C  - STORY GROUND PSZ-AC UNITARY AC, User-Specified No Load Supply Air Flow Rate [m3/s], 0.00000
 Component Sizing Information, AirLoopHVAC:UnitarySystem, ZONE OFFICE WHOLEBUILDING - MD OFFICE C  - STORY GROUND PSZ-AC UNITARY AC, Design Size Nominal Cooling Capacity [W], 13833.45027
 Component Sizing Information, Coil:Heating:Water, ZONE OFFICE WHOLEBUILDING - MD OFFICE C  - STORY GROUND PSZ-AC WATER HTG COIL, Design Size Rated Capacity [W], 33099.53586
 Component Sizing Information, Coil:Heating:Water, ZONE OFFICE WHOLEBUILDING - MD OFFICE C  - STORY GROUND PSZ-AC WATER HTG COIL, Design Size Maximum Water Flow Rate [m3/s], 7.23981E-004
 Component Sizing Information, Coil:Heating:Water, ZONE OFFICE WHOLEBUILDING - MD OFFICE C  - STORY GROUND PSZ-AC WATER HTG COIL, Design Size U-Factor Times Area Value [W/K], 810.76639
Water Heating Coil Capacity Information,Coil:Heating:Water,ZONE OFFICE WHOLEBUILDING - MD OFFICE C  - STORY GROUND PSZ-AC WATER HTG COIL,33471.69
 Component Sizing Information, AirLoopHVAC:UnitarySystem, ZONE OFFICE WHOLEBUILDING - MD OFFICE C  - STORY GROUND PSZ-AC UNITARY AC, Design Size Nominal Heating Capacity [W], 33099.53586
 Component Sizing Information, AirLoopHVAC:UnitarySystem, ZONE OFFICE WHOLEBUILDING - MD OFFICE C  - STORY GROUND PSZ-AC UNITARY AC, Design Size Maximum Supply Air Temperature [C], 50.00000
 Component Sizing Information, AirLoopHVAC:UnitarySystem, ZONE OFFICE WHOLEBUILDING - MD OFFICE C  - STORY GROUND PSZ-AC UNITARY AC, User-Specified Maximum Supply Air Temperature [C], 80.00000
 Component Sizing Information, AirLoopHVAC:UnitarySystem, ZONE OFFICE WHOLEBUILDING - MD OFFICE C  - STORY GROUND PSZ-AC UNITARY AC, User-Specified Supplemental Heating Coil Nominal Capacity [W], 33099.53586
 Component Sizing Information, AirLoopHVAC:UnitarySystem, ZONE OFFICE WHOLEBUILDING - MD OFFICE C  - STORY GROUND PSZ-AC UNITARY AC, Fraction of Supply Air Flow That Goes Through the Controlling Zone, 1.00000
 Component Sizing Information, Coil:Cooling:DX:SingleSpeed, ZONE OFFICE WHOLEBUILDING - MD OFFICE C  - STORY GROUND PSZ-AC 1SPD DX AC CLG COIL 39KBTU/HR 14.0SEER, Design Size Rated Air Flow Rate [m3/s], 0.83568
 Component Sizing Information, Coil:Cooling:DX:SingleSpeed, ZONE OFFICE WHOLEBUILDING - MD OFFICE C  - STORY GROUND PSZ-AC 1SPD DX AC CLG COIL 39KBTU/HR 14.0SEER, Design Size Gross Rated Total Cooling Capacity [W], 13833.45027
 Component Sizing Information, Coil:Cooling:DX:SingleSpeed, ZONE OFFICE WHOLEBUILDING - MD OFFICE C  - STORY GROUND PSZ-AC 1SPD DX AC CLG COIL 39KBTU/HR 14.0SEER, Design Size Gross Rated Sensible Heat Ratio, 0.80066
 DX Cooling Coil Standard Rating Information, Coil:Cooling:DX:SingleSpeed, ZONE OFFICE WHOLEBUILDING - MD OFFICE C  - STORY GROUND PSZ-AC 1SPD DX AC CLG COIL 39KBTU/HR 14.0SEER, 13178.5, 3.29, 11.22, 11.10, 11.10, 10.96
 DX Cooling Coil Standard Rating Information, Coil:Cooling:DX:SingleSpeed, ZONE OFFICE WHOLEBUILDING - MD OFFICE C  - STORY GROUND PSZ-AC 1SPD DX AC CLG COIL 39KBTU/HR 14.0SEER, 13043.9, 3.15, 10.75, 10.61, 10.91,  
 Component Sizing Information, Fan:OnOff, ZONE OFFICE WHOLEBUILDING - MD OFFICE C  - STORY GROUND PSZ-AC FAN, Design Size Maximum Flow Rate [m3/s], 0.83568
 Component Sizing Information, Coil:Heating:Electric, ZONE OFFICE WHOLEBUILDING - MD OFFICE C  - STORY GROUND PSZ-AC ELECTRIC BACKUP HTG COIL, Design Size Nominal Capacity [W], 33099.53586
 Component Sizing Information, Controller:OutdoorAir, ZONE OFFICE WHOLEBUILDING - MD OFFICE C END_A - STORY GROUND PSZ-AC OA SYSTEM CONTROLLER, Maximum Outdoor Air Flow Rate [m3/s], 0.16255
 Component Sizing Information, Controller:OutdoorAir, ZONE OFFICE WHOLEBUILDING - MD OFFICE C END_A - STORY GROUND PSZ-AC OA SYSTEM CONTROLLER, Minimum Outdoor Air Flow Rate [m3/s], 9.02599E-003
 Component Sizing Information, AirLoopHVAC:UnitarySystem, ZONE OFFICE WHOLEBUILDING - MD OFFICE C END_A - STORY GROUND PSZ-AC UNITARY AC, Design Size Supply Air Flow Rate [m3/s], 0.16255
 Component Sizing Information, AirLoopHVAC:UnitarySystem, ZONE OFFICE WHOLEBUILDING - MD OFFICE C END_A - STORY GROUND PSZ-AC UNITARY AC, Design Size Heating Supply Air Flow Rate [m3/s], 0.16255
 Component Sizing Information, AirLoopHVAC:UnitarySystem, ZONE OFFICE WHOLEBUILDING - MD OFFICE C END_A - STORY GROUND PSZ-AC UNITARY AC, Design Size Cooling Supply Air Flow Rate [m3/s], 0.16255
 Component Sizing Information, AirLoopHVAC:UnitarySystem, ZONE OFFICE WHOLEBUILDING - MD OFFICE C END_A - STORY GROUND PSZ-AC UNITARY AC, User-Specified No Load Supply Air Flow Rate [m3/s], 0.00000
 Component Sizing Information, AirLoopHVAC:UnitarySystem, ZONE OFFICE WHOLEBUILDING - MD OFFICE C END_A - STORY GROUND PSZ-AC UNITARY AC, Design Size Nominal Cooling Capacity [W], 2690.71200
 Component Sizing Information, Coil:Heating:Water, ZONE OFFICE WHOLEBUILDING - MD OFFICE C END_A - STORY GROUND PSZ-AC WATER HTG COIL, Design Size Rated Capacity [W], 6133.05693
 Component Sizing Information, Coil:Heating:Water, ZONE OFFICE WHOLEBUILDING - MD OFFICE C END_A - STORY GROUND PSZ-AC WATER HTG COIL, Design Size Maximum Water Flow Rate [m3/s], 1.34147E-004
 Component Sizing Information, Coil:Heating:Water, ZONE OFFICE WHOLEBUILDING - MD OFFICE C END_A - STORY GROUND PSZ-AC WATER HTG COIL, Design Size U-Factor Times Area Value [W/K], 152.74731
Water Heating Coil Capacity Information,Coil:Heating:Water,ZONE OFFICE WHOLEBUILDING - MD OFFICE C END_A - STORY GROUND PSZ-AC WATER HTG COIL,6352.84
 Component Sizing Information, AirLoopHVAC:UnitarySystem, ZONE OFFICE WHOLEBUILDING - MD OFFICE C END_A - STORY GROUND PSZ-AC UNITARY AC, Design Size Nominal Heating Capacity [W], 6133.05693
 Component Sizing Information, AirLoopHVAC:UnitarySystem, ZONE OFFICE WHOLEBUILDING - MD OFFICE C END_A - STORY GROUND PSZ-AC UNITARY AC, Design Size Maximum Supply Air Temperature [C], 50.00000
 Component Sizing Information, AirLoopHVAC:UnitarySystem, ZONE OFFICE WHOLEBUILDING - MD OFFICE C END_A - STORY GROUND PSZ-AC UNITARY AC, User-Specified Maximum Supply Air Temperature [C], 80.00000
 Component Sizing Information, AirLoopHVAC:UnitarySystem, ZONE OFFICE WHOLEBUILDING - MD OFFICE C END_A - STORY GROUND PSZ-AC UNITARY AC, User-Specified Supplemental Heating Coil Nominal Capacity [W], 6133.05693
 Component Sizing Information, AirLoopHVAC:UnitarySystem, ZONE OFFICE WHOLEBUILDING - MD OFFICE C END_A - STORY GROUND PSZ-AC UNITARY AC, Fraction of Supply Air Flow That Goes Through the Controlling Zone, 1.00000
 Component Sizing Information, Coil:Cooling:DX:SingleSpeed, ZONE OFFICE WHOLEBUILDING - MD OFFICE C END_A - STORY GROUND PSZ-AC 1SPD DX AC CLG COIL 9KBTU/HR 14.0SEER, Design Size Rated Air Flow Rate [m3/s], 0.16255
 Component Sizing Information, Coil:Cooling:DX:SingleSpeed, ZONE OFFICE WHOLEBUILDING - MD OFFICE C END_A - STORY GROUND PSZ-AC 1SPD DX AC CLG COIL 9KBTU/HR 14.0SEER, Design Size Gross Rated Total Cooling Capacity [W], 2690.71200
 Component Sizing Information, Coil:Cooling:DX:SingleSpeed, ZONE OFFICE WHOLEBUILDING - MD OFFICE C END_A - STORY GROUND PSZ-AC 1SPD DX AC CLG COIL 9KBTU/HR 14.0SEER, Design Size Gross Rated Sensible Heat Ratio, 0.80066
 DX Cooling Coil Standard Rating Information, Coil:Cooling:DX:SingleSpeed, ZONE OFFICE WHOLEBUILDING - MD OFFICE C END_A - STORY GROUND PSZ-AC 1SPD DX AC CLG COIL 9KBTU/HR 14.0SEER, 2563.3, 3.29, 11.22, 11.10, 11.10, 10.96
 DX Cooling Coil Standard Rating Information, Coil:Cooling:DX:SingleSpeed, ZONE OFFICE WHOLEBUILDING - MD OFFICE C END_A - STORY GROUND PSZ-AC 1SPD DX AC CLG COIL 9KBTU/HR 14.0SEER, 2537.1, 3.15, 10.75, 10.61, 10.91,  
 Component Sizing Information, Fan:OnOff, ZONE OFFICE WHOLEBUILDING - MD OFFICE C END_A - STORY GROUND PSZ-AC FAN, Design Size Maximum Flow Rate [m3/s], 0.16255
 Component Sizing Information, Coil:Heating:Electric, ZONE OFFICE WHOLEBUILDING - MD OFFICE C END_A - STORY GROUND PSZ-AC ELECTRIC BACKUP HTG COIL, Design Size Nominal Capacity [W], 6133.05693
 Component Sizing Information, Controller:OutdoorAir, ZONE OFFICE WHOLEBUILDING - MD OFFICE C END_B - STORY GROUND PSZ-AC OA SYSTEM CONTROLLER, Maximum Outdoor Air Flow Rate [m3/s], 0.16182
 Component Sizing Information, Controller:OutdoorAir, ZONE OFFICE WHOLEBUILDING - MD OFFICE C END_B - STORY GROUND PSZ-AC OA SYSTEM CONTROLLER, Minimum Outdoor Air Flow Rate [m3/s], 9.02599E-003
 Component Sizing Information, AirLoopHVAC:UnitarySystem, ZONE OFFICE WHOLEBUILDING - MD OFFICE C END_B - STORY GROUND PSZ-AC UNITARY AC, Design Size Supply Air Flow Rate [m3/s], 0.16182
 Component Sizing Information, AirLoopHVAC:UnitarySystem, ZONE OFFICE WHOLEBUILDING - MD OFFICE C END_B - STORY GROUND PSZ-AC UNITARY AC, Design Size Heating Supply Air Flow Rate [m3/s], 0.16182
 Component Sizing Information, AirLoopHVAC:UnitarySystem, ZONE OFFICE WHOLEBUILDING - MD OFFICE C END_B - STORY GROUND PSZ-AC UNITARY AC, Design Size Cooling Supply Air Flow Rate [m3/s], 0.16182
 Component Sizing Information, AirLoopHVAC:UnitarySystem, ZONE OFFICE WHOLEBUILDING - MD OFFICE C END_B - STORY GROUND PSZ-AC UNITARY AC, User-Specified No Load Supply Air Flow Rate [m3/s], 0.00000
 Component Sizing Information, AirLoopHVAC:UnitarySystem, ZONE OFFICE WHOLEBUILDING - MD OFFICE C END_B - STORY GROUND PSZ-AC UNITARY AC, Design Size Nominal Cooling Capacity [W], 2678.74800
 Component Sizing Information, Coil:Heating:Water, ZONE OFFICE WHOLEBUILDING - MD OFFICE C END_B - STORY GROUND PSZ-AC WATER HTG COIL, Design Size Rated Capacity [W], 6107.38186
 Component Sizing Information, Coil:Heating:Water, ZONE OFFICE WHOLEBUILDING - MD OFFICE C END_B - STORY GROUND PSZ-AC WATER HTG COIL, Design Size Maximum Water Flow Rate [m3/s], 1.33586E-004
 Component Sizing Information, Coil:Heating:Water, ZONE OFFICE WHOLEBUILDING - MD OFFICE C END_B - STORY GROUND PSZ-AC WATER HTG COIL, Design Size U-Factor Times Area Value [W/K], 152.09500
Water Heating Coil Capacity Information,Coil:Heating:Water,ZONE OFFICE WHOLEBUILDING - MD OFFICE C END_B - STORY GROUND PSZ-AC WATER HTG COIL,6325.45
 Component Sizing Information, AirLoopHVAC:UnitarySystem, ZONE OFFICE WHOLEBUILDING - MD OFFICE C END_B - STORY GROUND PSZ-AC UNITARY AC, Design Size Nominal Heating Capacity [W], 6107.38186
 Component Sizing Information, AirLoopHVAC:UnitarySystem, ZONE OFFICE WHOLEBUILDING - MD OFFICE C END_B - STORY GROUND PSZ-AC UNITARY AC, Design Size Maximum Supply Air Temperature [C], 50.00000
 Component Sizing Information, AirLoopHVAC:UnitarySystem, ZONE OFFICE WHOLEBUILDING - MD OFFICE C END_B - STORY GROUND PSZ-AC UNITARY AC, User-Specified Maximum Supply Air Temperature [C], 80.00000
 Component Sizing Information, AirLoopHVAC:UnitarySystem, ZONE OFFICE WHOLEBUILDING - MD OFFICE C END_B - STORY GROUND PSZ-AC UNITARY AC, User-Specified Supplemental Heating Coil Nominal Capacity [W], 6107.38186
 Component Sizing Information, AirLoopHVAC:UnitarySystem, ZONE OFFICE WHOLEBUILDING - MD OFFICE C END_B - STORY GROUND PSZ-AC UNITARY AC, Fraction of Supply Air Flow That Goes Through the Controlling Zone, 1.00000
 Component Sizing Information, Coil:Cooling:DX:SingleSpeed, ZONE OFFICE WHOLEBUILDING - MD OFFICE C END_B - STORY GROUND PSZ-AC 1SPD DX AC CLG COIL 9KBTU/HR 14.0SEER, Design Size Rated Air Flow Rate [m3/s], 0.16182
 Component Sizing Information, Coil:Cooling:DX:SingleSpeed, ZONE OFFICE WHOLEBUILDING - MD OFFICE C END_B - STORY GROUND PSZ-AC 1SPD DX AC CLG COIL 9KBTU/HR 14.0SEER, Design Size Gross Rated Total Cooling Capacity [W], 2678.74800
 Component Sizing Information, Coil:Cooling:DX:SingleSpeed, ZONE OFFICE WHOLEBUILDING - MD OFFICE C END_B - STORY GROUND PSZ-AC 1SPD DX AC CLG COIL 9KBTU/HR 14.0SEER, Design Size Gross Rated Sensible Heat Ratio, 0.80066
 DX Cooling Coil Standard Rating Information, Coil:Cooling:DX:SingleSpeed, ZONE OFFICE WHOLEBUILDING - MD OFFICE C END_B - STORY GROUND PSZ-AC 1SPD DX AC CLG COIL 9KBTU/HR 14.0SEER, 2551.9, 3.29, 11.22, 11.10, 11.10, 10.96
 DX Cooling Coil Standard Rating Information, Coil:Cooling:DX:SingleSpeed, ZONE OFFICE WHOLEBUILDING - MD OFFICE C END_B - STORY GROUND PSZ-AC 1SPD DX AC CLG COIL 9KBTU/HR 14.0SEER, 2525.9, 3.15, 10.75, 10.61, 10.91,  
 Component Sizing Information, Fan:OnOff, ZONE OFFICE WHOLEBUILDING - MD OFFICE C END_B - STORY GROUND PSZ-AC FAN, Design Size Maximum Flow Rate [m3/s], 0.16182
 Component Sizing Information, Coil:Heating:Electric, ZONE OFFICE WHOLEBUILDING - MD OFFICE C END_B - STORY GROUND PSZ-AC ELECTRIC BACKUP HTG COIL, Design Size Nominal Capacity [W], 6107.38186
Water Heater Information,WaterHeater:Mixed,40GAL ELECTRICITY WATER HEATER - 40KBTU/HR 1.0 THERM EFF 1.0 THERM EFF,0.1514,11722.8,3.751,0.4632
Water Heater Information,WaterHeater:Mixed,40GAL NATURALGAS WATER HEATER - 11KBTU/HR 0.82 THERM EFF,0.1514,3292.7,1.861,0.8001
 Component Sizing Information, PlantLoop, HOT WATER LOOP, Maximum Loop Flow Rate [m3/s], 6.29367E-003
 Component Sizing Information, PlantLoop, HOT WATER LOOP, Plant Loop Volume [m3], 0.75524
 Component Sizing Information, Pump:VariableSpeed, HOT WATER LOOP PUMP, Design Flow Rate [m3/s], 6.29367E-003
 Component Sizing Information, Pump:VariableSpeed, HOT WATER LOOP PUMP, Design Power Consumption [W], 1654.73660
 Component Sizing Information, DistrictHeating, HOT WATER LOOP DISTRICT HEATING, Design Size Nominal Capacity [W], 293529.82239
 Component Sizing Information, PlantLoop, MAIN SERVICE WATER LOOP, Maximum Loop Flow Rate [m3/s], 0.00000
 Component Sizing Information, PlantLoop, MAIN SERVICE WATER LOOP, Plant Loop Volume [m3], 0.00000
 Component Sizing Information, Pump:VariableSpeed, MAIN SERVICE WATER LOOP WATER MAINS PRESSURE DRIVEN, Design Flow Rate [m3/s], 0.00000
 Component Sizing Information, Pump:VariableSpeed, MAIN SERVICE WATER LOOP WATER MAINS PRESSURE DRIVEN, Design Power Consumption [W], 0.00000
 Component Sizing Information, WaterHeater:Mixed, 40GAL ELECTRICITY WATER HEATER - 40KBTU/HR 1.0 THERM EFF 1.0 THERM EFF, Use Side Design Flow Rate [m3/s], 0.00000
 Component Sizing Information, PlantLoop, OFFICE SHARED SERVICE WATER LOOP, Maximum Loop Flow Rate [m3/s], 1.97395E-005
 Component Sizing Information, PlantLoop, OFFICE SHARED SERVICE WATER LOOP, Plant Loop Volume [m3], 2.36874E-003
 Component Sizing Information, Pump:ConstantSpeed, OFFICE SHARED SERVICE WATER LOOP CIRCULATOR PUMP, Design Flow Rate [m3/s], 1.97395E-005
 Component Sizing Information, Pump:ConstantSpeed, OFFICE SHARED SERVICE WATER LOOP CIRCULATOR PUMP, Design Power Consumption [W], 1.08064
 Component Sizing Information, WaterHeater:Mixed, 40GAL NATURALGAS WATER HEATER - 11KBTU/HR 0.82 THERM EFF, Use Side Design Flow Rate [m3/s], 1.97395E-005
! <Environment>,Environment Name,Environment Type, Start Date, End Date, Start DayOfWeek, Duration {#days}, Source:Start DayOfWeek,  Use Daylight Saving, Use Holidays, Apply Weekend Holiday Rule,  Use Rain Values, Use Snow Values, Sky Temperature Model
! <Environment:Special Days>, Special Day Name, Special Day Type, Source, Start Date, Duration {#days}
! <Environment:Daylight Saving>, Daylight Saving Indicator, Source, Start Date, End Date
! <Environment:WarmupDays>, NumberofWarmupDays
Environment,RUN PERIOD 1,WeatherFileRunPeriod,01/01/2006,12/31/2006,Sunday,365,Use RunPeriod Specified Day,No,No,No,Yes,Yes,Clark and Allen
Environment:Daylight Saving,Yes,InputFile,03/12,11/05
Environment:WarmupDays, 11
! <Tabular Report>,Style,Unit Conversion
Tabular Report,HTML,None
! <Warmup Convergence Information>,Zone Name,Environment Type/Name,Average Warmup Temperature Difference {deltaC},Std Dev Warmup Temperature Difference {deltaC},Max Temperature Pass/Fail Convergence,Min Temperature Pass/Fail Convergence,Average Warmup Load Difference {W},Std Dev Warmup Load Difference {W},Heating Load Pass/Fail Convergence,Cooling Load Pass/Fail Convergence
 Warmup Convergence Information,ZONE OFFICE WHOLEBUILDING - MD OFFICE A  - STORY GROUND,RunPeriod: RUN PERIOD 1,3.1597067782E-002,8.4067041638E-002,Pass,Pass,1.9874613571,8.8917707842,Pass,Pass
 Warmup Convergence Information,ZONE OFFICE WHOLEBUILDING - MD OFFICE A END_A - STORY GROUND,RunPeriod: RUN PERIOD 1,3.1511899900E-004,2.1774577449E-004,Pass,Pass,0.1677609405,0.1541204721,Pass,Pass
 Warmup Convergence Information,ZONE OFFICE WHOLEBUILDING - MD OFFICE A END_B - STORY GROUND,RunPeriod: RUN PERIOD 1,3.0428201100E-004,2.2585170217E-004,Pass,Pass,0.2320318563,0.3718569732,Pass,Pass
 Warmup Convergence Information,ZONE OFFICE WHOLEBUILDING - MD OFFICE B  - STORY GROUND,RunPeriod: RUN PERIOD 1,2.9902932286E-003,8.2152213796E-003,Pass,Pass,0.1334063169,0.2088001931,Pass,Pass
 Warmup Convergence Information,ZONE OFFICE WHOLEBUILDING - MD OFFICE B END_A - STORY GROUND,RunPeriod: RUN PERIOD 1,2.2204460493E-015,1.7947651740E-015,Pass,Pass,8.6463303428E-002,6.2018980913E-002,Pass,Pass
 Warmup Convergence Information,ZONE OFFICE WHOLEBUILDING - MD OFFICE B END_B - STORY GROUND,RunPeriod: RUN PERIOD 1,1.3322676296E-015,1.0571437693E-015,Pass,Pass,0.1214852814,0.1086065210,Pass,Pass
 Warmup Convergence Information,ZONE OFFICE WHOLEBUILDING - MD OFFICE C  - STORY GROUND,RunPeriod: RUN PERIOD 1,1.2582527612E-015,1.0852710063E-015,Pass,Pass,7.1590492729E-002,5.7667205288E-002,Pass,Pass
 Warmup Convergence Information,ZONE OFFICE WHOLEBUILDING - MD OFFICE C END_A - STORY GROUND,RunPeriod: RUN PERIOD 1,5.7350457521E-004,4.2714769237E-004,Pass,Pass,7.8315009972E-002,5.4250168528E-002,Pass,Pass
 Warmup Convergence Information,ZONE OFFICE WHOLEBUILDING - MD OFFICE C END_B - STORY GROUND,RunPeriod: RUN PERIOD 1,5.7490350950E-004,3.7211678983E-004,Pass,Pass,9.1521248677E-002,5.7405586603E-002,Pass,Pass
! <Program Control Information:Threads/Parallel Sims>, Threading Supported,Maximum Number of Threads, Env Set Threads (OMP_NUM_THREADS), EP Env Set Threads (EP_OMP_NUM_THREADS), IDF Set Threads, Number of Threads Used (Interior Radiant Exchange), Number Nominal Surfaces, Number Parallel Sims
Program Control:Threads/Parallel Sims, No,1, N/A, N/A, N/A, N/A, N/A, N/A
End of Data
