{
   "completed_at" : "20230621T153208Z",
   "completed_status" : "Success",
   "created_at" : "20230405T221015Z",
   "current_step" : 2,
   "eplusout_err" : "Program Version,EnergyPlus, Version 23.1.0-87ed9199d4, YMD=2023.06.21 09:32,\n   ** Warning ** Timestep: Requested number (1) is less than the suggested minimum of 4.\n   **   ~~~   ** Please see entry for Timestep in Input/Output Reference for discussion of considerations.\n   ************* Beginning Zone Sizing Calculations\n   ** Warning ** ProcessScheduleInput: Schedule:Constant=\"TEMPORARY PIPE INDOOR AMBIENT TEMP 67.3F\", Blank Schedule Type Limits Name input -- will not be validated.\n   ** Warning ** ProcessScheduleInput: Schedule:Constant=\"ALWAYS ON CONTINUOUS\", Blank Schedule Type Limits Name input -- will not be validated.\n   ** Warning ** CheckUsedConstructions: There are 11 nominally unused constructions in input.\n   **   ~~~   ** For explicit details on each unused construction, use Output:Diagnostics,DisplayExtraWarnings;\n   ** Severe  ** WaterHeater:Mixed = 40GAL ELECTRICITY WATER HEATER - 40KBTU/HR 1.0 THERM EFF 1.0 THERM EFF:  Ambient Temperature Zone not found = \n   ************* Beginning System Sizing Calculations\n   ** Warning ** GetDXCoils: Coil:Cooling:DX:SingleSpeed=\"ZONE OFFICE WHOLEBUILDING - SM OFFICE 2 A  - STORY GROUND PSZ-AC 1SPD DX AC CLG COIL 22KBTU/HR 9.7SEER\", invalid\n   **   ~~~   ** ...Part Load Fraction Correlation Curve Name = COILCLGDXEIRRATIO_FQFRAC has out of range value.\n   **   ~~~   ** ...Curve maximum must be <= 1.0, curve max at PLR = 0.99 is 1.018\n   **   ~~~   ** ...Setting curve maximum to 1.0 and simulation continues.\n   ** Warning ** AirLoopHVAC:UnitarySystem = ZONE OFFICE WHOLEBUILDING - SM OFFICE 2 A  - STORY GROUND PSZ-AC UNITARY AC\n   **   ~~~   ** Method used to determine the cooling supply air flow rate is not specified when cooling coil is present.\n   ** Warning ** AirLoopHVAC:UnitarySystem = ZONE OFFICE WHOLEBUILDING - SM OFFICE 2 A  - STORY GROUND PSZ-AC UNITARY AC\n   **   ~~~   ** Method used to determine the heating supply air flow rate is not specified when heating coil is present.\n   ** Warning ** AirLoopHVAC:UnitarySystem = ZONE OFFICE WHOLEBUILDING - SM OFFICE 2 A END_A - STORY GROUND PSZ-AC UNITARY AC\n   **   ~~~   ** Method used to determine the cooling supply air flow rate is not specified when cooling coil is present.\n   ** Warning ** AirLoopHVAC:UnitarySystem = ZONE OFFICE WHOLEBUILDING - SM OFFICE 2 A END_A - STORY GROUND PSZ-AC UNITARY AC\n   **   ~~~   ** Method used to determine the heating supply air flow rate is not specified when heating coil is present.\n   ** Warning ** AirLoopHVAC:UnitarySystem = ZONE OFFICE WHOLEBUILDING - SM OFFICE 2 A END_B - STORY GROUND PSZ-AC UNITARY AC\n   **   ~~~   ** Method used to determine the cooling supply air flow rate is not specified when cooling coil is present.\n   ** Warning ** AirLoopHVAC:UnitarySystem = ZONE OFFICE WHOLEBUILDING - SM OFFICE 2 A END_B - STORY GROUND PSZ-AC UNITARY AC\n   **   ~~~   ** Method used to determine the heating supply air flow rate is not specified when heating coil is present.\n   ** Warning ** AirLoopHVAC:UnitarySystem = ZONE OFFICE WHOLEBUILDING - SM OFFICE 2 B  - STORY GROUND PSZ-AC UNITARY AC\n   **   ~~~   ** Method used to determine the cooling supply air flow rate is not specified when cooling coil is present.\n   ** Warning ** AirLoopHVAC:UnitarySystem = ZONE OFFICE WHOLEBUILDING - SM OFFICE 2 B  - STORY GROUND PSZ-AC UNITARY AC\n   **   ~~~   ** Method used to determine the heating supply air flow rate is not specified when heating coil is present.\n   ** Warning ** AirLoopHVAC:UnitarySystem = ZONE OFFICE WHOLEBUILDING - SM OFFICE 2 B END_A - STORY GROUND PSZ-AC UNITARY AC\n   **   ~~~   ** Method used to determine the cooling supply air flow rate is not specified when cooling coil is present.\n   ** Warning ** AirLoopHVAC:UnitarySystem = ZONE OFFICE WHOLEBUILDING - SM OFFICE 2 B END_A - STORY GROUND PSZ-AC UNITARY AC\n   **   ~~~   ** Method used to determine the heating supply air flow rate is not specified when heating coil is present.\n   ** Warning ** AirLoopHVAC:UnitarySystem = ZONE OFFICE WHOLEBUILDING - SM OFFICE 2 B END_B - STORY GROUND PSZ-AC UNITARY AC\n   **   ~~~   ** Method used to determine the cooling supply air flow rate is not specified when cooling coil is present.\n   ** Warning ** AirLoopHVAC:UnitarySystem = ZONE OFFICE WHOLEBUILDING - SM OFFICE 2 B END_B - STORY GROUND PSZ-AC UNITARY AC\n   **   ~~~   ** Method used to determine the heating supply air flow rate is not specified when heating coil is present.\n   ** Warning ** AirLoopHVAC:UnitarySystem = ZONE OFFICE WHOLEBUILDING - SM OFFICE 2 C  - STORY GROUND PSZ-AC UNITARY AC\n   **   ~~~   ** Method used to determine the cooling supply air flow rate is not specified when cooling coil is present.\n   ** Warning ** AirLoopHVAC:UnitarySystem = ZONE OFFICE WHOLEBUILDING - SM OFFICE 2 C  - STORY GROUND PSZ-AC UNITARY AC\n   **   ~~~   ** Method used to determine the heating supply air flow rate is not specified when heating coil is present.\n   ** Warning ** AirLoopHVAC:UnitarySystem = ZONE OFFICE WHOLEBUILDING - SM OFFICE 2 C END_A - STORY GROUND PSZ-AC UNITARY AC\n   **   ~~~   ** Method used to determine the cooling supply air flow rate is not specified when cooling coil is present.\n   ** Warning ** AirLoopHVAC:UnitarySystem = ZONE OFFICE WHOLEBUILDING - SM OFFICE 2 C END_A - STORY GROUND PSZ-AC UNITARY AC\n   **   ~~~   ** Method used to determine the heating supply air flow rate is not specified when heating coil is present.\n   ** Warning ** AirLoopHVAC:UnitarySystem = ZONE OFFICE WHOLEBUILDING - SM OFFICE 2 C END_B - STORY GROUND PSZ-AC UNITARY AC\n   **   ~~~   ** Method used to determine the cooling supply air flow rate is not specified when cooling coil is present.\n   ** Warning ** AirLoopHVAC:UnitarySystem = ZONE OFFICE WHOLEBUILDING - SM OFFICE 2 C END_B - STORY GROUND PSZ-AC UNITARY AC\n   **   ~~~   ** Method used to determine the heating supply air flow rate is not specified when heating coil is present.\n   ************* Beginning Plant Sizing Calculations\n   ** Warning ** GetOAControllerInputs: Controller:MechanicalVentilation=\"CONTROLLER MECHANICAL VENTILATION 1\"\n   **   ~~~   ** Cannot locate a matching DesignSpecification:ZoneAirDistribution object for Zone=\"ZONE OFFICE WHOLEBUILDING - SM OFFICE 2 A  - STORY GROUND\".\n   **   ~~~   ** Using default zone air distribution effectiveness of 1.0 for heating and cooling.\n   ** Warning ** GetOAControllerInputs: Controller:MechanicalVentilation=\"CONTROLLER MECHANICAL VENTILATION 2\"\n   **   ~~~   ** Cannot locate a matching DesignSpecification:ZoneAirDistribution object for Zone=\"ZONE OFFICE WHOLEBUILDING - SM OFFICE 2 A END_A - STORY GROUND\".\n   **   ~~~   ** Using default zone air distribution effectiveness of 1.0 for heating and cooling.\n   ** Warning ** GetOAControllerInputs: Controller:MechanicalVentilation=\"CONTROLLER MECHANICAL VENTILATION 3\"\n   **   ~~~   ** Cannot locate a matching DesignSpecification:ZoneAirDistribution object for Zone=\"ZONE OFFICE WHOLEBUILDING - SM OFFICE 2 A END_B - STORY GROUND\".\n   **   ~~~   ** Using default zone air distribution effectiveness of 1.0 for heating and cooling.\n   ** Warning ** GetOAControllerInputs: Controller:MechanicalVentilation=\"CONTROLLER MECHANICAL VENTILATION 4\"\n   **   ~~~   ** Cannot locate a matching DesignSpecification:ZoneAirDistribution object for Zone=\"ZONE OFFICE WHOLEBUILDING - SM OFFICE 2 B  - STORY GROUND\".\n   **   ~~~   ** Using default zone air distribution effectiveness of 1.0 for heating and cooling.\n   ** Warning ** GetOAControllerInputs: Controller:MechanicalVentilation=\"CONTROLLER MECHANICAL VENTILATION 5\"\n   **   ~~~   ** Cannot locate a matching DesignSpecification:ZoneAirDistribution object for Zone=\"ZONE OFFICE WHOLEBUILDING - SM OFFICE 2 B END_A - STORY GROUND\".\n   **   ~~~   ** Using default zone air distribution effectiveness of 1.0 for heating and cooling.\n   ** Warning ** GetOAControllerInputs: Controller:MechanicalVentilation=\"CONTROLLER MECHANICAL VENTILATION 6\"\n   **   ~~~   ** Cannot locate a matching DesignSpecification:ZoneAirDistribution object for Zone=\"ZONE OFFICE WHOLEBUILDING - SM OFFICE 2 B END_B - STORY GROUND\".\n   **   ~~~   ** Using default zone air distribution effectiveness of 1.0 for heating and cooling.\n   ** Warning ** GetOAControllerInputs: Controller:MechanicalVentilation=\"CONTROLLER MECHANICAL VENTILATION 7\"\n   **   ~~~   ** Cannot locate a matching DesignSpecification:ZoneAirDistribution object for Zone=\"ZONE OFFICE WHOLEBUILDING - SM OFFICE 2 C  - STORY GROUND\".\n   **   ~~~   ** Using default zone air distribution effectiveness of 1.0 for heating and cooling.\n   ** Warning ** GetOAControllerInputs: Controller:MechanicalVentilation=\"CONTROLLER MECHANICAL VENTILATION 8\"\n   **   ~~~   ** Cannot locate a matching DesignSpecification:ZoneAirDistribution object for Zone=\"ZONE OFFICE WHOLEBUILDING - SM OFFICE 2 C END_A - STORY GROUND\".\n   **   ~~~   ** Using default zone air distribution effectiveness of 1.0 for heating and cooling.\n   ** Warning ** GetOAControllerInputs: Controller:MechanicalVentilation=\"CONTROLLER MECHANICAL VENTILATION 9\"\n   **   ~~~   ** Cannot locate a matching DesignSpecification:ZoneAirDistribution object for Zone=\"ZONE OFFICE WHOLEBUILDING - SM OFFICE 2 C END_B - STORY GROUND\".\n   **   ~~~   ** Using default zone air distribution effectiveness of 1.0 for heating and cooling.\n   ** Warning ** The Standard Ratings is calculated for Coil:Cooling:DX:SingleSpeed = ZONE OFFICE WHOLEBUILDING - SM OFFICE 2 A  - STORY GROUND PSZ-AC 1SPD DX AC CLG COIL 22KBTU/HR 9.7SEER but not at the AHRI test condition due to curve out of bound.\n   **   ~~~   **  Review the Standard Ratings calculations in the Engineering Reference for this coil type. Also, use Output:Diagnostics, DisplayExtraWarnings for further guidance.\n   ** Warning ** The Standard Ratings is calculated for Coil:Cooling:DX:SingleSpeed = ZONE OFFICE WHOLEBUILDING - SM OFFICE 2 A END_A - STORY GROUND PSZ-AC 1SPD DX AC CLG COIL 9KBTU/HR 9.7SEER but not at the AHRI test condition due to curve out of bound.\n   **   ~~~   **  Review the Standard Ratings calculations in the Engineering Reference for this coil type. Also, use Output:Diagnostics, DisplayExtraWarnings for further guidance.\n   ** Warning ** The Standard Ratings is calculated for Coil:Cooling:DX:SingleSpeed = ZONE OFFICE WHOLEBUILDING - SM OFFICE 2 A END_B - STORY GROUND PSZ-AC 1SPD DX AC CLG COIL 8KBTU/HR 9.7SEER but not at the AHRI test condition due to curve out of bound.\n   **   ~~~   **  Review the Standard Ratings calculations in the Engineering Reference for this coil type. Also, use Output:Diagnostics, DisplayExtraWarnings for further guidance.\n   ** Warning ** The Standard Ratings is calculated for Coil:Cooling:DX:SingleSpeed = ZONE OFFICE WHOLEBUILDING - SM OFFICE 2 B  - STORY GROUND PSZ-AC 1SPD DX AC CLG COIL 16KBTU/HR 9.7SEER but not at the AHRI test condition due to curve out of bound.\n   **   ~~~   **  Review the Standard Ratings calculations in the Engineering Reference for this coil type. Also, use Output:Diagnostics, DisplayExtraWarnings for further guidance.\n   ** Warning ** The Standard Ratings is calculated for Coil:Cooling:DX:SingleSpeed = ZONE OFFICE WHOLEBUILDING - SM OFFICE 2 B END_A - STORY GROUND PSZ-AC 1SPD DX AC CLG COIL 10KBTU/HR 9.7SEER but not at the AHRI test condition due to curve out of bound.\n   **   ~~~   **  Review the Standard Ratings calculations in the Engineering Reference for this coil type. Also, use Output:Diagnostics, DisplayExtraWarnings for further guidance.\n   ** Warning ** The Standard Ratings is calculated for Coil:Cooling:DX:SingleSpeed = ZONE OFFICE WHOLEBUILDING - SM OFFICE 2 B END_B - STORY GROUND PSZ-AC 1SPD DX AC CLG COIL 10KBTU/HR 9.7SEER but not at the AHRI test condition due to curve out of bound.\n   **   ~~~   **  Review the Standard Ratings calculations in the Engineering Reference for this coil type. Also, use Output:Diagnostics, DisplayExtraWarnings for further guidance.\n   ** Warning ** The Standard Ratings is calculated for Coil:Cooling:DX:SingleSpeed = ZONE OFFICE WHOLEBUILDING - SM OFFICE 2 C  - STORY GROUND PSZ-AC 1SPD DX AC CLG COIL 10KBTU/HR 9.7SEER but not at the AHRI test condition due to curve out of bound.\n   **   ~~~   **  Review the Standard Ratings calculations in the Engineering Reference for this coil type. Also, use Output:Diagnostics, DisplayExtraWarnings for further guidance.\n   ** Warning ** The Standard Ratings is calculated for Coil:Cooling:DX:SingleSpeed = ZONE OFFICE WHOLEBUILDING - SM OFFICE 2 C END_A - STORY GROUND PSZ-AC 1SPD DX AC CLG COIL 7KBTU/HR 9.7SEER but not at the AHRI test condition due to curve out of bound.\n   **   ~~~   **  Review the Standard Ratings calculations in the Engineering Reference for this coil type. Also, use Output:Diagnostics, DisplayExtraWarnings for further guidance.\n   ** Warning ** The Standard Ratings is calculated for Coil:Cooling:DX:SingleSpeed = ZONE OFFICE WHOLEBUILDING - SM OFFICE 2 C END_B - STORY GROUND PSZ-AC 1SPD DX AC CLG COIL 6KBTU/HR 9.7SEER but not at the AHRI test condition due to curve out of bound.\n   **   ~~~   **  Review the Standard Ratings calculations in the Engineering Reference for this coil type. Also, use Output:Diagnostics, DisplayExtraWarnings for further guidance.\n   ** Warning ** SizePlantLoop: Calculated Plant Sizing Design Volume Flow Rate=[0.00] is too small. Set to 0.0\n   **   ~~~   ** ..occurs for PlantLoop=MAIN SERVICE WATER LOOP\n   ** Warning ** SizePump: Calculated Pump Nominal Volume Flow Rate=[0.00] is too small. Set to 0.0\n   **   ~~~   ** ..occurs for Pump=MAIN SERVICE WATER LOOP WATER MAINS PRESSURE DRIVEN\n   ** Warning ** Check input. Pump nominal power or motor efficiency is set to 0, for pump=MAIN SERVICE WATER LOOP WATER MAINS PRESSURE DRIVEN\n   ** Warning ** Check input. Pump nominal flow rate is set or calculated = 0, for pump=MAIN SERVICE WATER LOOP WATER MAINS PRESSURE DRIVEN\n   ** Warning ** Output:Meter: invalid Key Name=\"DISTRICTCOOLING:FACILITY\" - not found.\n   ** Warning ** Output:Meter: invalid Key Name=\"DISTRICTHEATING:FACILITY\" - not found.\n   ** Warning ** Output:Meter:MeterFileOnly requested for \"Electricity:Facility\" (TimeStep), already on \"Output:Meter\". Will report to both eplusout.eso and eplusout.mtr\n   ************* Testing Individual Branch Integrity\n   ************* All Branches passed integrity testing\n   ************* Testing Individual Supply Air Path Integrity\n   ************* All Supply Air Paths passed integrity testing\n   ************* Testing Individual Return Air Path Integrity\n   ************* All Return Air Paths passed integrity testing\n   ************* No node connection errors were found.\n   ************* Beginning Simulation\n   ** Warning ** In Output:Table:Monthly 'BUILDING ENERGY PERFORMANCE - ELECTRICITY' invalid Variable or Meter Name 'EXTERIOREQUIPMENT:ELECTRICITY'\n   ** Warning ** In Output:Table:Monthly 'BUILDING ENERGY PERFORMANCE - ELECTRICITY' invalid Variable or Meter Name 'HEATREJECTION:ELECTRICITY'\n   ** Warning ** In Output:Table:Monthly 'BUILDING ENERGY PERFORMANCE - ELECTRICITY' invalid Variable or Meter Name 'HUMIDIFIER:ELECTRICITY'\n   ** Warning ** In Output:Table:Monthly 'BUILDING ENERGY PERFORMANCE - ELECTRICITY' invalid Variable or Meter Name 'HEATRECOVERY:ELECTRICITY'\n   ** Warning ** In Output:Table:Monthly 'BUILDING ENERGY PERFORMANCE - ELECTRICITY' invalid Variable or Meter Name 'COGENERATION:ELECTRICITY'\n   ** Warning ** In Output:Table:Monthly 'BUILDING ENERGY PERFORMANCE - ELECTRICITY' invalid Variable or Meter Name 'REFRIGERATION:ELECTRICITY'\n   ** Warning ** In Output:Table:Monthly 'BUILDING ENERGY PERFORMANCE - NATURAL GAS' invalid Variable or Meter Name 'INTERIOREQUIPMENT:NATURALGAS'\n   ** Warning ** In Output:Table:Monthly 'BUILDING ENERGY PERFORMANCE - NATURAL GAS' invalid Variable or Meter Name 'EXTERIOREQUIPMENT:NATURALGAS'\n   ** Warning ** In Output:Table:Monthly 'BUILDING ENERGY PERFORMANCE - NATURAL GAS' invalid Variable or Meter Name 'COOLING:NATURALGAS'\n   ** Warning ** In Output:Table:Monthly 'BUILDING ENERGY PERFORMANCE - NATURAL GAS' invalid Variable or Meter Name 'COGENERATION:NATURALGAS'\n   ** Warning ** In Output:Table:Monthly 'BUILDING ENERGY PERFORMANCE - DISTRICT HEATING' invalid Variable or Meter Name 'INTERIORLIGHTS:DISTRICTHEATING'\n   ** Warning ** In Output:Table:Monthly 'BUILDING ENERGY PERFORMANCE - DISTRICT HEATING' invalid Variable or Meter Name 'EXTERIORLIGHTS:DISTRICTHEATING'\n   ** Warning ** In Output:Table:Monthly 'BUILDING ENERGY PERFORMANCE - DISTRICT HEATING' invalid Variable or Meter Name 'INTERIOREQUIPMENT:DISTRICTHEATING'\n   ** Warning ** In Output:Table:Monthly 'BUILDING ENERGY PERFORMANCE - DISTRICT HEATING' invalid Variable or Meter Name 'EXTERIOREQUIPMENT:DISTRICTHEATING'\n   ** Warning ** In Output:Table:Monthly 'BUILDING ENERGY PERFORMANCE - DISTRICT HEATING' invalid Variable or Meter Name 'FANS:DISTRICTHEATING'\n   ** Warning ** In Output:Table:Monthly 'BUILDING ENERGY PERFORMANCE - DISTRICT HEATING' invalid Variable or Meter Name 'PUMPS:DISTRICTHEATING'\n   ** Warning ** In Output:Table:Monthly 'BUILDING ENERGY PERFORMANCE - DISTRICT HEATING' invalid Variable or Meter Name 'HEATING:DISTRICTHEATING'\n   ** Warning ** In Output:Table:Monthly 'BUILDING ENERGY PERFORMANCE - DISTRICT HEATING' invalid Variable or Meter Name 'COOLING:DISTRICTHEATING'\n   ** Warning ** In Output:Table:Monthly 'BUILDING ENERGY PERFORMANCE - DISTRICT HEATING' invalid Variable or Meter Name 'HEATREJECTION:DISTRICTHEATING'\n   ** Warning ** In Output:Table:Monthly 'BUILDING ENERGY PERFORMANCE - DISTRICT HEATING' invalid Variable or Meter Name 'HUMIDIFIER:DISTRICTHEATING'\n   ** Warning ** In Output:Table:Monthly 'BUILDING ENERGY PERFORMANCE - DISTRICT HEATING' invalid Variable or Meter Name 'HEATRECOVERY:DISTRICTHEATING'\n   ** Warning ** In Output:Table:Monthly 'BUILDING ENERGY PERFORMANCE - DISTRICT HEATING' invalid Variable or Meter Name 'WATERSYSTEMS:DISTRICTHEATING'\n   ** Warning ** In Output:Table:Monthly 'BUILDING ENERGY PERFORMANCE - DISTRICT HEATING' invalid Variable or Meter Name 'COGENERATION:DISTRICTHEATING'\n   ** Warning ** In Output:Table:Monthly 'BUILDING ENERGY PERFORMANCE - DISTRICT COOLING' invalid Variable or Meter Name 'INTERIORLIGHTS:DISTRICTCOOLING'\n   ** Warning ** In Output:Table:Monthly 'BUILDING ENERGY PERFORMANCE - DISTRICT COOLING' invalid Variable or Meter Name 'EXTERIORLIGHTS:DISTRICTCOOLING'\n   ** Warning ** In Output:Table:Monthly 'BUILDING ENERGY PERFORMANCE - DISTRICT COOLING' invalid Variable or Meter Name 'INTERIOREQUIPMENT:DISTRICTCOOLING'\n   ** Warning ** In Output:Table:Monthly 'BUILDING ENERGY PERFORMANCE - DISTRICT COOLING' invalid Variable or Meter Name 'EXTERIOREQUIPMENT:DISTRICTCOOLING'\n   ** Warning ** In Output:Table:Monthly 'BUILDING ENERGY PERFORMANCE - DISTRICT COOLING' invalid Variable or Meter Name 'FANS:DISTRICTCOOLING'\n   ** Warning ** In Output:Table:Monthly 'BUILDING ENERGY PERFORMANCE - DISTRICT COOLING' invalid Variable or Meter Name 'PUMPS:DISTRICTCOOLING'\n   ** Warning ** In Output:Table:Monthly 'BUILDING ENERGY PERFORMANCE - DISTRICT COOLING' invalid Variable or Meter Name 'HEATING:DISTRICTCOOLING'\n   ** Warning ** In Output:Table:Monthly 'BUILDING ENERGY PERFORMANCE - DISTRICT COOLING' invalid Variable or Meter Name 'COOLING:DISTRICTCOOLING'\n   ** Warning ** In Output:Table:Monthly 'BUILDING ENERGY PERFORMANCE - DISTRICT COOLING' invalid Variable or Meter Name 'HEATREJECTION:DISTRICTCOOLING'\n   ** Warning ** In Output:Table:Monthly 'BUILDING ENERGY PERFORMANCE - DISTRICT COOLING' invalid Variable or Meter Name 'HUMIDIFIER:DISTRICTCOOLING'\n   ** Warning ** In Output:Table:Monthly 'BUILDING ENERGY PERFORMANCE - DISTRICT COOLING' invalid Variable or Meter Name 'HEATRECOVERY:DISTRICTCOOLING'\n   ** Warning ** In Output:Table:Monthly 'BUILDING ENERGY PERFORMANCE - DISTRICT COOLING' invalid Variable or Meter Name 'WATERSYSTEMS:DISTRICTCOOLING'\n   ** Warning ** In Output:Table:Monthly 'BUILDING ENERGY PERFORMANCE - DISTRICT COOLING' invalid Variable or Meter Name 'COGENERATION:DISTRICTCOOLING'\n   ** Warning ** In Output:Table:Monthly 'BUILDING ENERGY PERFORMANCE - ELECTRICITY PEAK DEMAND' invalid Variable or Meter Name 'EXTERIOREQUIPMENT:ELECTRICITY'\n   ** Warning ** In Output:Table:Monthly 'BUILDING ENERGY PERFORMANCE - ELECTRICITY PEAK DEMAND' invalid Variable or Meter Name 'HEATREJECTION:ELECTRICITY'\n   ** Warning ** In Output:Table:Monthly 'BUILDING ENERGY PERFORMANCE - ELECTRICITY PEAK DEMAND' invalid Variable or Meter Name 'HUMIDIFIER:ELECTRICITY'\n   ** Warning ** In Output:Table:Monthly 'BUILDING ENERGY PERFORMANCE - ELECTRICITY PEAK DEMAND' invalid Variable or Meter Name 'HEATRECOVERY:ELECTRICITY'\n   ** Warning ** In Output:Table:Monthly 'BUILDING ENERGY PERFORMANCE - ELECTRICITY PEAK DEMAND' invalid Variable or Meter Name 'COGENERATION:ELECTRICITY'\n   ** Warning ** In Output:Table:Monthly 'BUILDING ENERGY PERFORMANCE - NATURAL GAS PEAK DEMAND' invalid Variable or Meter Name 'INTERIOREQUIPMENT:NATURALGAS'\n   ** Warning ** In Output:Table:Monthly 'BUILDING ENERGY PERFORMANCE - NATURAL GAS PEAK DEMAND' invalid Variable or Meter Name 'EXTERIOREQUIPMENT:NATURALGAS'\n   ** Warning ** In Output:Table:Monthly 'BUILDING ENERGY PERFORMANCE - NATURAL GAS PEAK DEMAND' invalid Variable or Meter Name 'COOLING:NATURALGAS'\n   ** Warning ** In Output:Table:Monthly 'BUILDING ENERGY PERFORMANCE - NATURAL GAS PEAK DEMAND' invalid Variable or Meter Name 'COGENERATION:NATURALGAS'\n   ** Warning ** In Output:Table:Monthly 'BUILDING ENERGY PERFORMANCE - DISTRICT HEATING PEAK DEMAND' invalid Variable or Meter Name 'DISTRICTHEATING:FACILITY'\n   ** Warning ** In Output:Table:Monthly 'BUILDING ENERGY PERFORMANCE - DISTRICT HEATING PEAK DEMAND' invalid Variable or Meter Name 'INTERIORLIGHTS:DISTRICTHEATING'\n   ** Warning ** In Output:Table:Monthly 'BUILDING ENERGY PERFORMANCE - DISTRICT HEATING PEAK DEMAND' invalid Variable or Meter Name 'EXTERIORLIGHTS:DISTRICTHEATING'\n   ** Warning ** In Output:Table:Monthly 'BUILDING ENERGY PERFORMANCE - DISTRICT HEATING PEAK DEMAND' invalid Variable or Meter Name 'INTERIOREQUIPMENT:DISTRICTHEATING'\n   ** Warning ** In Output:Table:Monthly 'BUILDING ENERGY PERFORMANCE - DISTRICT HEATING PEAK DEMAND' invalid Variable or Meter Name 'EXTERIOREQUIPMENT:DISTRICTHEATING'\n   ** Warning ** In Output:Table:Monthly 'BUILDING ENERGY PERFORMANCE - DISTRICT HEATING PEAK DEMAND' invalid Variable or Meter Name 'FANS:DISTRICTHEATING'\n   ** Warning ** In Output:Table:Monthly 'BUILDING ENERGY PERFORMANCE - DISTRICT HEATING PEAK DEMAND' invalid Variable or Meter Name 'PUMPS:DISTRICTHEATING'\n   ** Warning ** In Output:Table:Monthly 'BUILDING ENERGY PERFORMANCE - DISTRICT HEATING PEAK DEMAND' invalid Variable or Meter Name 'HEATING:DISTRICTHEATING'\n   ** Warning ** In Output:Table:Monthly 'BUILDING ENERGY PERFORMANCE - DISTRICT HEATING PEAK DEMAND' invalid Variable or Meter Name 'COOLING:DISTRICTHEATING'\n   ** Warning ** In Output:Table:Monthly 'BUILDING ENERGY PERFORMANCE - DISTRICT HEATING PEAK DEMAND' invalid Variable or Meter Name 'HEATREJECTION:DISTRICTHEATING'\n   ** Warning ** In Output:Table:Monthly 'BUILDING ENERGY PERFORMANCE - DISTRICT HEATING PEAK DEMAND' invalid Variable or Meter Name 'HUMIDIFIER:DISTRICTHEATING'\n   ** Warning ** In Output:Table:Monthly 'BUILDING ENERGY PERFORMANCE - DISTRICT HEATING PEAK DEMAND' invalid Variable or Meter Name 'HEATRECOVERY:DISTRICTHEATING'\n   ** Warning ** In Output:Table:Monthly 'BUILDING ENERGY PERFORMANCE - DISTRICT HEATING PEAK DEMAND' invalid Variable or Meter Name 'WATERSYSTEMS:DISTRICTHEATING'\n   ** Warning ** In Output:Table:Monthly 'BUILDING ENERGY PERFORMANCE - DISTRICT HEATING PEAK DEMAND' invalid Variable or Meter Name 'COGENERATION:DISTRICTHEATING'\n   ** Warning ** In Output:Table:Monthly 'BUILDING ENERGY PERFORMANCE - DISTRICT COOLING PEAK DEMAND' invalid Variable or Meter Name 'DISTRICTCOOLING:FACILITY'\n   ** Warning ** In Output:Table:Monthly 'BUILDING ENERGY PERFORMANCE - DISTRICT COOLING PEAK DEMAND' invalid Variable or Meter Name 'INTERIORLIGHTS:DISTRICTCOOLING'\n   ** Warning ** In Output:Table:Monthly 'BUILDING ENERGY PERFORMANCE - DISTRICT COOLING PEAK DEMAND' invalid Variable or Meter Name 'EXTERIORLIGHTS:DISTRICTCOOLING'\n   ** Warning ** In Output:Table:Monthly 'BUILDING ENERGY PERFORMANCE - DISTRICT COOLING PEAK DEMAND' invalid Variable or Meter Name 'INTERIOREQUIPMENT:DISTRICTCOOLING'\n   ** Warning ** In Output:Table:Monthly 'BUILDING ENERGY PERFORMANCE - DISTRICT COOLING PEAK DEMAND' invalid Variable or Meter Name 'EXTERIOREQUIPMENT:DISTRICTCOOLING'\n   ** Warning ** In Output:Table:Monthly 'BUILDING ENERGY PERFORMANCE - DISTRICT COOLING PEAK DEMAND' invalid Variable or Meter Name 'FANS:DISTRICTCOOLING'\n   ** Warning ** In Output:Table:Monthly 'BUILDING ENERGY PERFORMANCE - DISTRICT COOLING PEAK DEMAND' invalid Variable or Meter Name 'PUMPS:DISTRICTCOOLING'\n   ** Warning ** In Output:Table:Monthly 'BUILDING ENERGY PERFORMANCE - DISTRICT COOLING PEAK DEMAND' invalid Variable or Meter Name 'HEATING:DISTRICTCOOLING'\n   ** Warning ** In Output:Table:Monthly 'BUILDING ENERGY PERFORMANCE - DISTRICT COOLING PEAK DEMAND' invalid Variable or Meter Name 'COOLING:DISTRICTCOOLING'\n   ** Warning ** In Output:Table:Monthly 'BUILDING ENERGY PERFORMANCE - DISTRICT COOLING PEAK DEMAND' invalid Variable or Meter Name 'HEATREJECTION:DISTRICTCOOLING'\n   ** Warning ** In Output:Table:Monthly 'BUILDING ENERGY PERFORMANCE - DISTRICT COOLING PEAK DEMAND' invalid Variable or Meter Name 'HUMIDIFIER:DISTRICTCOOLING'\n   ** Warning ** In Output:Table:Monthly 'BUILDING ENERGY PERFORMANCE - DISTRICT COOLING PEAK DEMAND' invalid Variable or Meter Name 'HEATRECOVERY:DISTRICTCOOLING'\n   ** Warning ** In Output:Table:Monthly 'BUILDING ENERGY PERFORMANCE - DISTRICT COOLING PEAK DEMAND' invalid Variable or Meter Name 'WATERSYSTEMS:DISTRICTCOOLING'\n   ** Warning ** In Output:Table:Monthly 'BUILDING ENERGY PERFORMANCE - DISTRICT COOLING PEAK DEMAND' invalid Variable or Meter Name 'COGENERATION:DISTRICTCOOLING'\n   ** Warning ** Processing Monthly Tabular Reports: Variable names not valid for this simulation\n   **   ~~~   ** ...use Output:Diagnostics,DisplayExtraWarnings; to show more details on individual variables.\n   ** Warning ** CalcEquipmentFlowRates: \"OFFICE WHOLEBUILDING - SM OFFICE 2 - 90.1-2004 SERVICE WATER USE 0.04GPM AT 140F\" - Target water temperature is greater than the hot water temperature by (40.40 C)\n   **   ~~~   **  Environment=RUN PERIOD 1, at Simulation time=01/02 06:00 - 07:00\n   **   ~~~   ** ...target water temperature     = 60.00 C\n   **   ~~~   ** ...hot water temperature        = 19.60 C\n   **   ~~~   ** ...Target water temperature should be less than or equal to the hot water temperature. Verify temperature setpoints and schedules.\n   ** Warning ** CalcDoe2DXCoil: Coil:Cooling:DX:SingleSpeed \"ZONE OFFICE WHOLEBUILDING - SM OFFICE 2 A END_A - STORY GROUND PSZ-AC 1SPD DX AC CLG COIL 9KBTU/HR 9.7SEER\" - Full load outlet air dry-bulb temperature < 2C. This indicates the possibility of coil frost/freeze. Outlet temperature = 1.98 C.\n   **   ~~~   **  ...Occurrence info = RUN PERIOD 1, 03/14 23:06 - 23:09\n   **   ~~~   ** ... Possible reasons for low outlet air dry-bulb temperatures are: This DX coil\n   **   ~~~   **    1) may have a low inlet air dry-bulb temperature. Inlet air temperature = 14.261 C.\n   **   ~~~   **    2) may have a low air flow rate per watt of cooling capacity. Check inputs.\n   **   ~~~   **    3) is used as part of a HX assisted cooling coil which uses a high sensible effectiveness. Check inputs.\n   ** Warning ** CalcDoe2DXCoil: Coil:Cooling:DX:SingleSpeed \"ZONE OFFICE WHOLEBUILDING - SM OFFICE 2 A  - STORY GROUND PSZ-AC 1SPD DX AC CLG COIL 22KBTU/HR 9.7SEER\" - Full load outlet air dry-bulb temperature < 2C. This indicates the possibility of coil frost/freeze. Outlet temperature = 1.61 C.\n   **   ~~~   **  ...Occurrence info = RUN PERIOD 1, 03/14 23:09 - 23:13\n   **   ~~~   ** ... Possible reasons for low outlet air dry-bulb temperatures are: This DX coil\n   **   ~~~   **    1) may have a low inlet air dry-bulb temperature. Inlet air temperature = 13.983 C.\n   **   ~~~   **    2) may have a low air flow rate per watt of cooling capacity. Check inputs.\n   **   ~~~   **    3) is used as part of a HX assisted cooling coil which uses a high sensible effectiveness. Check inputs.\n   ** Warning ** CalcDoe2DXCoil: Coil:Cooling:DX:SingleSpeed \"ZONE OFFICE WHOLEBUILDING - SM OFFICE 2 A END_B - STORY GROUND PSZ-AC 1SPD DX AC CLG COIL 8KBTU/HR 9.7SEER\" - Full load outlet air dry-bulb temperature < 2C. This indicates the possibility of coil frost/freeze. Outlet temperature = 0.96 C.\n   **   ~~~   **  ...Occurrence info = RUN PERIOD 1, 03/14 23:09 - 23:13\n   **   ~~~   ** ... Possible reasons for low outlet air dry-bulb temperatures are: This DX coil\n   **   ~~~   **    1) may have a low inlet air dry-bulb temperature. Inlet air temperature = 12.680 C.\n   **   ~~~   **    2) may have a low air flow rate per watt of cooling capacity. Check inputs.\n   **   ~~~   **    3) is used as part of a HX assisted cooling coil which uses a high sensible effectiveness. Check inputs.\n   ** Warning ** CalcDoe2DXCoil: Coil:Cooling:DX:SingleSpeed \"ZONE OFFICE WHOLEBUILDING - SM OFFICE 2 B END_A - STORY GROUND PSZ-AC 1SPD DX AC CLG COIL 10KBTU/HR 9.7SEER\" - Full load outlet air dry-bulb temperature < 2C. This indicates the possibility of coil frost/freeze. Outlet temperature = 1.79 C.\n   **   ~~~   **  ...Occurrence info = RUN PERIOD 1, 03/14 23:09 - 23:13\n   **   ~~~   ** ... Possible reasons for low outlet air dry-bulb temperatures are: This DX coil\n   **   ~~~   **    1) may have a low inlet air dry-bulb temperature. Inlet air temperature = 13.963 C.\n   **   ~~~   **    2) may have a low air flow rate per watt of cooling capacity. Check inputs.\n   **   ~~~   **    3) is used as part of a HX assisted cooling coil which uses a high sensible effectiveness. Check inputs.\n   ** Warning ** CalcDoe2DXCoil: Coil:Cooling:DX:SingleSpeed \"ZONE OFFICE WHOLEBUILDING - SM OFFICE 2 B END_B - STORY GROUND PSZ-AC 1SPD DX AC CLG COIL 10KBTU/HR 9.7SEER\" - Full load outlet air dry-bulb temperature < 2C. This indicates the possibility of coil frost/freeze. Outlet temperature = 1.85 C.\n   **   ~~~   **  ...Occurrence info = RUN PERIOD 1, 03/14 23:09 - 23:13\n   **   ~~~   ** ... Possible reasons for low outlet air dry-bulb temperatures are: This DX coil\n   **   ~~~   **    1) may have a low inlet air dry-bulb temperature. Inlet air temperature = 14.050 C.\n   **   ~~~   **    2) may have a low air flow rate per watt of cooling capacity. Check inputs.\n   **   ~~~   **    3) is used as part of a HX assisted cooling coil which uses a high sensible effectiveness. Check inputs.\n   ** Warning ** CalcDoe2DXCoil: Coil:Cooling:DX:SingleSpeed \"ZONE OFFICE WHOLEBUILDING - SM OFFICE 2 C END_A - STORY GROUND PSZ-AC 1SPD DX AC CLG COIL 7KBTU/HR 9.7SEER\" - Full load outlet air dry-bulb temperature < 2C. This indicates the possibility of coil frost/freeze. Outlet temperature = 1.34 C.\n   **   ~~~   **  ...Occurrence info = RUN PERIOD 1, 03/14 23:09 - 23:13\n   **   ~~~   ** ... Possible reasons for low outlet air dry-bulb temperatures are: This DX coil\n   **   ~~~   **    1) may have a low inlet air dry-bulb temperature. Inlet air temperature = 13.259 C.\n   **   ~~~   **    2) may have a low air flow rate per watt of cooling capacity. Check inputs.\n   **   ~~~   **    3) is used as part of a HX assisted cooling coil which uses a high sensible effectiveness. Check inputs.\n   ** Warning ** CalcDoe2DXCoil: Coil:Cooling:DX:SingleSpeed \"ZONE OFFICE WHOLEBUILDING - SM OFFICE 2 C END_B - STORY GROUND PSZ-AC 1SPD DX AC CLG COIL 6KBTU/HR 9.7SEER\" - Full load outlet air dry-bulb temperature < 2C. This indicates the possibility of coil frost/freeze. Outlet temperature = 1.39 C.\n   **   ~~~   **  ...Occurrence info = RUN PERIOD 1, 03/14 23:09 - 23:13\n   **   ~~~   ** ... Possible reasons for low outlet air dry-bulb temperatures are: This DX coil\n   **   ~~~   **    1) may have a low inlet air dry-bulb temperature. Inlet air temperature = 13.344 C.\n   **   ~~~   **    2) may have a low air flow rate per watt of cooling capacity. Check inputs.\n   **   ~~~   **    3) is used as part of a HX assisted cooling coil which uses a high sensible effectiveness. Check inputs.\n   ** Warning ** CalcDoe2DXCoil: Coil:Cooling:DX:SingleSpeed \"ZONE OFFICE WHOLEBUILDING - SM OFFICE 2 C  - STORY GROUND PSZ-AC 1SPD DX AC CLG COIL 10KBTU/HR 9.7SEER\" - Full load outlet air dry-bulb temperature < 2C. This indicates the possibility of coil frost/freeze. Outlet temperature = 1.90 C.\n   **   ~~~   **  ...Occurrence info = RUN PERIOD 1, 03/14 23:16 - 23:19\n   **   ~~~   ** ... Possible reasons for low outlet air dry-bulb temperatures are: This DX coil\n   **   ~~~   **    1) may have a low inlet air dry-bulb temperature. Inlet air temperature = 14.436 C.\n   **   ~~~   **    2) may have a low air flow rate per watt of cooling capacity. Check inputs.\n   **   ~~~   **    3) is used as part of a HX assisted cooling coil which uses a high sensible effectiveness. Check inputs.\n   ** Warning ** CalcDoe2DXCoil: Coil:Cooling:DX:SingleSpeed \"ZONE OFFICE WHOLEBUILDING - SM OFFICE 2 B  - STORY GROUND PSZ-AC 1SPD DX AC CLG COIL 16KBTU/HR 9.7SEER\" - Full load outlet air dry-bulb temperature < 2C. This indicates the possibility of coil frost/freeze. Outlet temperature = 1.99 C.\n   **   ~~~   **  ...Occurrence info = RUN PERIOD 1, 03/14 23:35 - 23:38\n   **   ~~~   ** ... Possible reasons for low outlet air dry-bulb temperatures are: This DX coil\n   **   ~~~   **    1) may have a low inlet air dry-bulb temperature. Inlet air temperature = 14.413 C.\n   **   ~~~   **    2) may have a low air flow rate per watt of cooling capacity. Check inputs.\n   **   ~~~   **    3) is used as part of a HX assisted cooling coil which uses a high sensible effectiveness. Check inputs.\n   ** Warning ** More than 4% of time (350.4 hours) uncomfortable in one or more zones \n   **   ~~~   ** Based on ASHRAE 55-2004 graph (Section 5.2.1.1)\n   **   ~~~   ** During Environment [01/01/2006 - 12/31/2006]: RUN PERIOD 1\n   **   ~~~   ** 6652.0 hours were uncomfortable in zone: ZONE OFFICE WHOLEBUILDING - SM OFFICE 2 A  - STORY GROUND\n   **   ~~~   ** 6665.0 hours were uncomfortable in zone: ZONE OFFICE WHOLEBUILDING - SM OFFICE 2 A END_A - STORY GROUND\n   **   ~~~   ** 6647.0 hours were uncomfortable in zone: ZONE OFFICE WHOLEBUILDING - SM OFFICE 2 A END_B - STORY GROUND\n   **   ~~~   ** 6652.0 hours were uncomfortable in zone: ZONE OFFICE WHOLEBUILDING - SM OFFICE 2 B  - STORY GROUND\n   **   ~~~   ** 6675.0 hours were uncomfortable in zone: ZONE OFFICE WHOLEBUILDING - SM OFFICE 2 B END_A - STORY GROUND\n   **   ~~~   ** 6622.0 hours were uncomfortable in zone: ZONE OFFICE WHOLEBUILDING - SM OFFICE 2 B END_B - STORY GROUND\n   **   ~~~   ** 7408.0 hours were uncomfortable in zone: ZONE OFFICE WHOLEBUILDING - SM OFFICE 2 C  - STORY GROUND\n   **   ~~~   ** 7165.0 hours were uncomfortable in zone: ZONE OFFICE WHOLEBUILDING - SM OFFICE 2 C END_A - STORY GROUND\n   **   ~~~   ** 7091.0 hours were uncomfortable in zone: ZONE OFFICE WHOLEBUILDING - SM OFFICE 2 C END_B - STORY GROUND\n   ** Warning ** The resource referenced by LifeCycleCost:UsePriceEscalation= \"U.S. AVG  COMMERCIAL-ELECTRICITY\" has no energy cost. \n   **   ~~~   ** ... It is likely that the wrong resource is used. The resource should match the meter used in Utility:Tariff.\n   ** Warning ** The resource referenced by LifeCycleCost:UsePriceEscalation= \"U.S. AVG  COMMERCIAL-DISTILLATE OIL\" has no energy cost. \n   **   ~~~   ** ... It is likely that the wrong resource is used. The resource should match the meter used in Utility:Tariff.\n   ** Warning ** The resource referenced by LifeCycleCost:UsePriceEscalation= \"U.S. AVG  COMMERCIAL-RESIDUAL OIL\" has no energy cost. \n   **   ~~~   ** ... It is likely that the wrong resource is used. The resource should match the meter used in Utility:Tariff.\n   ** Warning ** The resource referenced by LifeCycleCost:UsePriceEscalation= \"U.S. AVG  COMMERCIAL-NATURAL GAS\" has no energy cost. \n   **   ~~~   ** ... It is likely that the wrong resource is used. The resource should match the meter used in Utility:Tariff.\n   ** Warning ** The resource referenced by LifeCycleCost:UsePriceEscalation= \"U.S. AVG  COMMERCIAL-COAL\" has no energy cost. \n   **   ~~~   ** ... It is likely that the wrong resource is used. The resource should match the meter used in Utility:Tariff.\n   ************* Simulation Error Summary *************\n   ************* There are 3 unused schedules in input.\n   ************* There are 7 unused week schedules in input.\n   ************* There are 17 unused day schedules in input.\n   ************* Use Output:Diagnostics,DisplayUnusedSchedules; to see them.\n   *************\n   ************* ===== Recurring Error Summary =====\n   ************* The following recurring error messages occurred.\n   *************\n   *************  ** Warning ** \"OFFICE WHOLEBUILDING - SM OFFICE 2 - 90.1-2004 SERVICE WATER USE 0.04GPM AT 140F\" - Target water temperature should be less than or equal to the hot water temperature error continues...\n   *************  **   ~~~   **   This error occurred 79327 total times;\n   *************  **   ~~~   **   during Warmup 0 times;\n   *************  **   ~~~   **   during Sizing 0 times.\n   *************  **   ~~~   **   Max=40.400000  Min=33.445980\n   *************\n   *************  ** Warning ** Plant loop falling below lower temperature limit, PlantLoop=\"OFFICE SHARED SERVICE WATER LOOP\"\n   *************  **   ~~~   **   This error occurred 849 total times;\n   *************  **   ~~~   **   during Warmup 0 times;\n   *************  **   ~~~   **   during Sizing 0 times.\n   *************  **   ~~~   **   Min=0.348353\n   *************\n   *************  ** Warning ** CalcDoe2DXCoil: Coil:Cooling:DX:SingleSpeed=\"ZONE OFFICE WHOLEBUILDING - SM OFFICE 2 A END_A - STORY GROUND PSZ-AC 1SPD DX AC CLG COIL 9KBTU/HR 9.7SEER\" - Full load outlet temperature indicates a possibility of frost/freeze error continues. Outlet air temperature statistics follow:\n   *************  **   ~~~   **   This error occurred 16 total times;\n   *************  **   ~~~   **   during Warmup 0 times;\n   *************  **   ~~~   **   during Sizing 0 times.\n   *************  **   ~~~   **   Max=1.978789  Min=-3.170841\n   *************\n   *************  ** Warning ** CalcDoe2DXCoil: Coil:Cooling:DX:SingleSpeed=\"ZONE OFFICE WHOLEBUILDING - SM OFFICE 2 A  - STORY GROUND PSZ-AC 1SPD DX AC CLG COIL 22KBTU/HR 9.7SEER\" - Full load outlet temperature indicates a possibility of frost/freeze error continues. Outlet air temperature statistics follow:\n   *************  **   ~~~   **   This error occurred 15 total times;\n   *************  **   ~~~   **   during Warmup 0 times;\n   *************  **   ~~~   **   during Sizing 0 times.\n   *************  **   ~~~   **   Max=1.614901  Min=-2.143843\n   *************\n   *************  ** Warning ** CalcDoe2DXCoil: Coil:Cooling:DX:SingleSpeed=\"ZONE OFFICE WHOLEBUILDING - SM OFFICE 2 A END_B - STORY GROUND PSZ-AC 1SPD DX AC CLG COIL 8KBTU/HR 9.7SEER\" - Full load outlet temperature indicates a possibility of frost/freeze error continues. Outlet air temperature statistics follow:\n   *************  **   ~~~   **   This error occurred 15 total times;\n   *************  **   ~~~   **   during Warmup 0 times;\n   *************  **   ~~~   **   during Sizing 0 times.\n   *************  **   ~~~   **   Max=0.962937  Min=-2.754665\n   *************\n   *************  ** Warning ** CalcDoe2DXCoil: Coil:Cooling:DX:SingleSpeed=\"ZONE OFFICE WHOLEBUILDING - SM OFFICE 2 B END_A - STORY GROUND PSZ-AC 1SPD DX AC CLG COIL 10KBTU/HR 9.7SEER\" - Full load outlet temperature indicates a possibility of frost/freeze error continues. Outlet air temperature statistics follow:\n   *************  **   ~~~   **   This error occurred 15 total times;\n   *************  **   ~~~   **   during Warmup 0 times;\n   *************  **   ~~~   **   during Sizing 0 times.\n   *************  **   ~~~   **   Max=1.792106  Min=-1.560523\n   *************\n   *************  ** Warning ** CalcDoe2DXCoil: Coil:Cooling:DX:SingleSpeed=\"ZONE OFFICE WHOLEBUILDING - SM OFFICE 2 B END_B - STORY GROUND PSZ-AC 1SPD DX AC CLG COIL 10KBTU/HR 9.7SEER\" - Full load outlet temperature indicates a possibility of frost/freeze error continues. Outlet air temperature statistics follow:\n   *************  **   ~~~   **   This error occurred 15 total times;\n   *************  **   ~~~   **   during Warmup 0 times;\n   *************  **   ~~~   **   during Sizing 0 times.\n   *************  **   ~~~   **   Max=1.848303  Min=-1.451074\n   *************\n   *************  ** Warning ** CalcDoe2DXCoil: Coil:Cooling:DX:SingleSpeed=\"ZONE OFFICE WHOLEBUILDING - SM OFFICE 2 C END_A - STORY GROUND PSZ-AC 1SPD DX AC CLG COIL 7KBTU/HR 9.7SEER\" - Full load outlet temperature indicates a possibility of frost/freeze error continues. Outlet air temperature statistics follow:\n   *************  **   ~~~   **   This error occurred 15 total times;\n   *************  **   ~~~   **   during Warmup 0 times;\n   *************  **   ~~~   **   during Sizing 0 times.\n   *************  **   ~~~   **   Max=1.339576  Min=-1.557927\n   *************\n   *************  ** Warning ** CalcDoe2DXCoil: Coil:Cooling:DX:SingleSpeed=\"ZONE OFFICE WHOLEBUILDING - SM OFFICE 2 C END_B - STORY GROUND PSZ-AC 1SPD DX AC CLG COIL 6KBTU/HR 9.7SEER\" - Full load outlet temperature indicates a possibility of frost/freeze error continues. Outlet air temperature statistics follow:\n   *************  **   ~~~   **   This error occurred 15 total times;\n   *************  **   ~~~   **   during Warmup 0 times;\n   *************  **   ~~~   **   during Sizing 0 times.\n   *************  **   ~~~   **   Max=1.393509  Min=-1.434730\n   *************\n   *************  ** Warning ** CalcDoe2DXCoil: Coil:Cooling:DX:SingleSpeed=\"ZONE OFFICE WHOLEBUILDING - SM OFFICE 2 C  - STORY GROUND PSZ-AC 1SPD DX AC CLG COIL 10KBTU/HR 9.7SEER\" - Full load outlet temperature indicates a possibility of frost/freeze error continues. Outlet air temperature statistics follow:\n   *************  **   ~~~   **   This error occurred 13 total times;\n   *************  **   ~~~   **   during Warmup 0 times;\n   *************  **   ~~~   **   during Sizing 0 times.\n   *************  **   ~~~   **   Max=1.897681  Min=0.926812\n   *************\n   *************  ** Warning ** CalcDoe2DXCoil: Coil:Cooling:DX:SingleSpeed=\"ZONE OFFICE WHOLEBUILDING - SM OFFICE 2 B  - STORY GROUND PSZ-AC 1SPD DX AC CLG COIL 16KBTU/HR 9.7SEER\" - Full load outlet temperature indicates a possibility of frost/freeze error continues. Outlet air temperature statistics follow:\n   *************  **   ~~~   **   This error occurred 7 total times;\n   *************  **   ~~~   **   during Warmup 0 times;\n   *************  **   ~~~   **   during Sizing 0 times.\n   *************  **   ~~~   **   Max=1.994779  Min=1.653122\n   *************\n   *************\n   ************* ===== Final Error Summary =====\n   ************* The following error categories occurred.  Consider correcting or noting.\n   ************* Nominally Unused Constructions\n   ************* ..The nominally unused constructions warning is provided to alert you to potential conditions that can cause\n   ************* ..extra time during simulation. Each construction is calculated by the algorithm indicated in the HeatBalanceAlgorithm\n   ************* ..object. You may remove the constructions indicated (when you use the DisplayExtraWarnings option).\n   *************\n   ************* EnergyPlus Warmup Error Summary. During Warmup: 0 Warning; 0 Severe Errors.\n   ************* EnergyPlus Sizing Error Summary. During Sizing: 22 Warning; 1 Severe Errors.\n   ************* EnergyPlus Completed Successfully-- 80431 Warning; 1 Severe Errors; Elapsed Time=00hr 00min  7.31sec\n",
   "file_paths" : 
   [
      "/private/var/folders/cj/vhw1_9g1151dh76sjlgdyq19k7f3h5/T/osmodel-1687361495-62/resources/generated_files",
      "./files",
      "./weather",
      "../../files",
      "../../weather",
      "./"
   ],
   "hash" : "484B12CD",
   "seed_file" : "../in.osm",
   "started_at" : "20230621T153157Z",
   "steps" : 
   [
      {
         "arguments" : 
         {
            "reporting_frequency" : "monthly"
         },
         "description" : "This measure adds an meter at the requested reporting frequency.",
         "measure_dir_name" : "AddMeter",
         "modeler_description" : "The measure just passes in the string and does not validate that it is a proper meter name. It is up to the user to know this or to look at the .mdd file from a previous simulation run.",
         "name" : "AddMeter",
         "result" : 
         {
            "completed_at" : "20230621T153157Z",
            "measure_class_name" : "AddMeter",
            "measure_display_name" : "AddMeter",
            "measure_name" : "add_meter",
            "measure_taxonomy" : "Reporting.QAQC",
            "measure_type" : "ModelMeasure",
            "measure_uid" : "ad4015f2-6d1d-4bb2-84b1-db47bc67a5b2",
            "measure_version_id" : "510f6247-c5c0-4a2a-af57-642b518db7a9",
            "measure_version_modified" : "20180814T171512Z",
            "measure_xml_checksum" : "0CA4D54C",
            "started_at" : "20230621T153157Z",
            "stderr" : "",
            "stdout" : "",
            "step_errors" : [],
            "step_files" : [],
            "step_final_condition" : "The model finished with 3 meter objects.",
            "step_info" : 
            [
               "Changing reporting frequency of existing meter to monthly."
            ],
            "step_initial_condition" : "The model started with 3 meter objects.",
            "step_result" : "Success",
            "step_values" : 
            [
               {
                  "name" : "meter_name",
                  "value" : "Electricity:Facility"
               },
               {
                  "name" : "reporting_frequency",
                  "value" : "monthly"
               }
            ],
            "step_warnings" : 
            [
               "A meter named Electricity:Facility already exists. One will not be added to the model."
            ]
         }
      },
      {
         "arguments" : 
         {
            "otg_date" : "March 15"
         },
         "description" : "This measures allows building power outages to be modeled. The user specifies the start time of the outage and the duration of the outage. During an outage, all energy consumption is set to 0, although occupants are still simulated in the home.",
         "measure_dir_name" : "set_power_and_heat_off",
         "modeler_description" : "This measure zeroes out the schedule for anything that consumes energy for the duration of the power outage.",
         "name" : "Set Power and Heat off",
         "result" : 
         {
            "completed_at" : "20230621T153159Z",
            "measure_class_name" : "SetPowerAndHeatOff",
            "measure_display_name" : "Set Power and Heat off",
            "measure_name" : "set_power_and_heat_off",
            "measure_taxonomy" : "Whole Building.Whole Building Schedules",
            "measure_type" : "ModelMeasure",
            "measure_uid" : "0ac8dac6-7ee2-4ae7-aee0-f5cabdfe3a82",
            "measure_version_id" : "0c84c6fa-eac0-417b-a530-77db918089b3",
            "measure_version_modified" : "20230530T223523Z",
            "measure_xml_checksum" : "25215CE1",
            "started_at" : "20230621T153159Z",
            "stderr" : "",
            "stdout" : "",
            "step_errors" : [],
            "step_files" : [],
            "step_final_condition" : "A power outage has been added, starting on March 15 at hour 0 and lasting for 24 hours.",
            "step_info" : 
            [
               "Modified the schedule 'Zone Office WholeBuilding - Sm Office 2 C end_b - Story Ground PSZ-AC Occ Sch'.",
               "Modified the schedule 'Zone Office WholeBuilding - Sm Office 2 C end_a - Story Ground PSZ-AC Occ Sch'.",
               "Modified the schedule 'Zone Office WholeBuilding - Sm Office 2 C  - Story Ground PSZ-AC Occ Sch'.",
               "Modified the schedule 'ZoneOfficeWholeBuildingSmOffice2BendbStoryGroundPSZACmaxOASch'.",
               "Modified the schedule 'ZoneOfficeWholeBuildingSmOffice2CendbStoryGroundPSZACmaxOASch'.",
               "Modified the schedule 'Zone Office WholeBuilding - Sm Office 2 B end_b - Story Ground PSZ-AC Occ Sch'.",
               "Modified the schedule 'ZoneOfficeWholeBuildingSmOffice2BStoryGroundPSZACmaxOASch'.",
               "Modified the schedule 'ZoneOfficeWholeBuildingSmOffice2AendbStoryGroundPSZACmaxOASch'.",
               "Modified the schedule 'Zone Office WholeBuilding - Sm Office 2 A end_b - Story Ground PSZ-AC Occ Sch'.",
               "Modified the schedule 'ZoneOfficeWholeBuildingSmOffice2AendaStoryGroundPSZACmaxOASch'.",
               "Modified the schedule 'ZoneOfficeWholeBuildingSmOffice2AStoryGroundPSZACmaxOASch'.",
               "Modified the schedule 'Office Shared Service Water Loop Piping Air Velocity - 0.67mph'.",
               "Modified the schedule 'Water Heater Ambient Temp Schedule - 71.6f'.",
               "Modified the schedule 'Zone Office WholeBuilding - Sm Office 2 A end_a - Story Ground PSZ-AC Occ Sch'.",
               "Modified the schedule 'Fraction Sensible - 0.2'.",
               "Modified the schedule 'OfficeSmall BLDG_LIGHT_SCH'.",
               "Modified the schedule 'ZoneOfficeWholeBuildingSmOffice2CStoryGroundPSZACmaxOASch'.",
               "Modified the schedule 'Clothing Schedule'.",
               "Modified the schedule 'OfficeSmall CLGSETP_SCH_NO_OPTIMUM'.",
               "Modified the schedule 'Zone Office WholeBuilding - Sm Office 2 A  - Story Ground PSZ-AC Occ Sch'.",
               "Modified the schedule 'Zone Office WholeBuilding - Sm Office 2 B end_a - Story Ground PSZ-AC Occ Sch'.",
               "Modified the schedule 'OfficeSmall Exterior_lighting_schedule_a'.",
               "Modified the schedule 'ZoneOfficeWholeBuildingSmOffice2CendaStoryGroundPSZACmaxOASch'.",
               "Modified the schedule 'OfficeSmall BLDG_SWH_SCH'.",
               "Modified the schedule 'OfficeSmall BLDG_EQUIP_SCH'.",
               "Modified the schedule 'OfficeSmall Exterior_lighting_schedule_b'.",
               "Modified the schedule 'Mixed Water At Faucet Temp - 140F'.",
               "Modified the schedule 'Zone Office WholeBuilding - Sm Office 2 B  - Story Ground PSZ-AC Occ Sch'.",
               "Modified the schedule 'Building Hours of Operation NonResidential'.",
               "Modified the schedule 'Fraction Latent - 0.05'.",
               "Modified the schedule 'Work Efficiency Schedule'.",
               "Modified the schedule 'Service Water Loop Temp - 140F'.",
               "Modified the schedule 'OfficeSmall HTGSETP_SCH_NO_OPTIMUM'.",
               "Modified the schedule 'ZoneOfficeWholeBuildingSmOffice2BendaStoryGroundPSZACmaxOASch'.",
               "Modified the schedule 'OfficeSmall INFIL_QUARTER_ON_SCH'.",
               "Modified the schedule 'Air Velocity Schedule'.",
               "Modified the availability schedule for 'Zone Office WholeBuilding - Sm Office 2 B end_b - Story Ground PSZ-AC Unitary AC'.",
               "Modified the availability schedule for 'Zone Office WholeBuilding - Sm Office 2 B end_b - Story Ground PSZ-AC Unitary AC'.",
               "Modified the availability schedule for 'Zone Office WholeBuilding - Sm Office 2 A end_b - Story Ground PSZ-AC Unitary AC'.",
               "Modified the availability schedule for 'Zone Office WholeBuilding - Sm Office 2 A end_b - Story Ground PSZ-AC Unitary AC'.",
               "Modified the availability schedule for 'Zone Office WholeBuilding - Sm Office 2 C  - Story Ground PSZ-AC Unitary AC'.",
               "Modified the availability schedule for 'Zone Office WholeBuilding - Sm Office 2 C  - Story Ground PSZ-AC Unitary AC'.",
               "Modified the availability schedule for 'Zone Office WholeBuilding - Sm Office 2 A  - Story Ground PSZ-AC Unitary AC'.",
               "Modified the availability schedule for 'Zone Office WholeBuilding - Sm Office 2 A  - Story Ground PSZ-AC Unitary AC'.",
               "Modified the availability schedule for 'Zone Office WholeBuilding - Sm Office 2 C end_a - Story Ground PSZ-AC Unitary AC'.",
               "Modified the availability schedule for 'Zone Office WholeBuilding - Sm Office 2 C end_a - Story Ground PSZ-AC Unitary AC'.",
               "Modified the availability schedule for 'Zone Office WholeBuilding - Sm Office 2 C end_b - Story Ground PSZ-AC Unitary AC'.",
               "Modified the availability schedule for 'Zone Office WholeBuilding - Sm Office 2 C end_b - Story Ground PSZ-AC Unitary AC'.",
               "Modified the availability schedule for 'Zone Office WholeBuilding - Sm Office 2 B  - Story Ground PSZ-AC Unitary AC'.",
               "Modified the availability schedule for 'Zone Office WholeBuilding - Sm Office 2 B  - Story Ground PSZ-AC Unitary AC'.",
               "Modified the availability schedule for 'Zone Office WholeBuilding - Sm Office 2 B end_a - Story Ground PSZ-AC Unitary AC'.",
               "Modified the availability schedule for 'Zone Office WholeBuilding - Sm Office 2 B end_a - Story Ground PSZ-AC Unitary AC'.",
               "Modified the availability schedule for 'Zone Office WholeBuilding - Sm Office 2 A end_a - Story Ground PSZ-AC Unitary AC'.",
               "Modified the availability schedule for 'Zone Office WholeBuilding - Sm Office 2 A end_a - Story Ground PSZ-AC Unitary AC'.",
               "Modified the schedule 'lighting_interior'.",
               "Modified the schedule 'lighting_exterior'.",
               "Modified the schedule 'lighting_garage'.",
               "Modified the schedule 'lighting_exterior_holiday'.",
               "Modified the schedule 'cooking_range'.",
               "Modified the schedule 'dishwasher'.",
               "Modified the schedule 'dishwasher_power'.",
               "Modified the schedule 'clothes_washer'.",
               "Modified the schedule 'clothes_washer_power'.",
               "Modified the schedule 'clothes_dryer'.",
               "Modified the schedule 'clothes_dryer_exhaust'.",
               "Modified the schedule 'baths'.",
               "Modified the schedule 'showers'.",
               "Modified the schedule 'sinks'.",
               "Modified the schedule 'ceiling_fan'.",
               "Modified the schedule 'plug_loads'.",
               "Modified the schedule 'plug_loads_vehicle'.",
               "Modified the schedule 'plug_loads_well_pump'.",
               "Modified the schedule 'fuel_loads_grill'.",
               "Modified the schedule 'fuel_loads_lighting'.",
               "Modified the schedule 'fuel_loads_fireplace'."
            ],
            "step_result" : "Success",
            "step_values" : 
            [
               {
                  "name" : "otg_date",
                  "value" : "March 15"
               },
               {
                  "name" : "otg_hr",
                  "value" : 0
               },
               {
                  "name" : "otg_len",
                  "value" : 24
               },
               {
                  "name" : "outage_type",
                  "value" : "Power and Heat"
               }
            ],
            "step_warnings" : []
         }
      }
   ],
   "updated_at" : "20230621T153208Z",
   "weather_file" : "Kodiak_Airport_703500_TMY3.epw"
}