Program Version,EnergyPlus, Version 22.2.0-aa78da9668, YMD=2023.06.21 17:49
! This file shows details about the branches, nodes, and other
! elements of the flow connections.
! This file is intended for use in "debugging" potential problems
! that may also be detected by the program, but may be more easily
! identified by "eye".
! This file is also intended to support software which draws a
! schematic diagram of the HVAC system.
! ===============================================================
! #Nodes,<Number of Unique Nodes>
 #Nodes,161
! <Node>,<NodeNumber>,<Node Name>,<Node Fluid Type>,<# Times Node Referenced After Definition>
 Node,1,ZONE OFFICE WHOLEBUILDING - SM OFFICE 2 A  - STORY GROUND PSZ-AC DIFFUSER OUTLET AIR NODE,Air,4
 Node,2,ZONE OFFICE WHOLEBUILDING - SM OFFICE 2 A  - STORY GROUND RETURN AIR NODE,Air,2
 Node,3,ZONE OFFICE WHOLEBUILDING - SM OFFICE 2 A END_A - STORY GROUND PSZ-AC DIFFUSER OUTLET AIR NODE,Air,4
 Node,4,ZONE OFFICE WHOLEBUILDING - SM OFFICE 2 A END_A - STORY GROUND RETURN AIR NODE,Air,2
 Node,5,ZONE OFFICE WHOLEBUILDING - SM OFFICE 2 A END_B - STORY GROUND PSZ-AC DIFFUSER OUTLET AIR NODE,Air,4
 Node,6,ZONE OFFICE WHOLEBUILDING - SM OFFICE 2 A END_B - STORY GROUND RETURN AIR NODE,Air,2
 Node,7,ZONE OFFICE WHOLEBUILDING - SM OFFICE 2 B  - STORY GROUND PSZ-AC DIFFUSER OUTLET AIR NODE,Air,4
 Node,8,ZONE OFFICE WHOLEBUILDING - SM OFFICE 2 B  - STORY GROUND RETURN AIR NODE,Air,2
 Node,9,ZONE OFFICE WHOLEBUILDING - SM OFFICE 2 B END_A - STORY GROUND PSZ-AC DIFFUSER OUTLET AIR NODE,Air,4
 Node,10,ZONE OFFICE WHOLEBUILDING - SM OFFICE 2 B END_A - STORY GROUND RETURN AIR NODE,Air,2
 Node,11,ZONE OFFICE WHOLEBUILDING - SM OFFICE 2 B END_B - STORY GROUND PSZ-AC DIFFUSER OUTLET AIR NODE,Air,4
 Node,12,ZONE OFFICE WHOLEBUILDING - SM OFFICE 2 B END_B - STORY GROUND RETURN AIR NODE,Air,2
 Node,13,ZONE OFFICE WHOLEBUILDING - SM OFFICE 2 C  - STORY GROUND PSZ-AC DIFFUSER OUTLET AIR NODE,Air,4
 Node,14,ZONE OFFICE WHOLEBUILDING - SM OFFICE 2 C  - STORY GROUND RETURN AIR NODE,Air,2
 Node,15,ZONE OFFICE WHOLEBUILDING - SM OFFICE 2 C END_A - STORY GROUND PSZ-AC DIFFUSER OUTLET AIR NODE,Air,4
 Node,16,ZONE OFFICE WHOLEBUILDING - SM OFFICE 2 C END_A - STORY GROUND RETURN AIR NODE,Air,2
 Node,17,ZONE OFFICE WHOLEBUILDING - SM OFFICE 2 C END_B - STORY GROUND PSZ-AC DIFFUSER OUTLET AIR NODE,Air,4
 Node,18,ZONE OFFICE WHOLEBUILDING - SM OFFICE 2 C END_B - STORY GROUND RETURN AIR NODE,Air,2
 Node,19,ZONE OFFICE WHOLEBUILDING - SM OFFICE 2 A  - STORY GROUND PSZ-AC SUPPLY OUTLET NODE,Air,6
 Node,20,ZONE OFFICE WHOLEBUILDING - SM OFFICE 2 A  - STORY GROUND PSZ-AC DEMAND INLET NODE,Air,3
 Node,21,ZONE OFFICE WHOLEBUILDING - SM OFFICE 2 A END_A - STORY GROUND PSZ-AC SUPPLY OUTLET NODE,Air,6
 Node,22,ZONE OFFICE WHOLEBUILDING - SM OFFICE 2 A END_A - STORY GROUND PSZ-AC DEMAND INLET NODE,Air,3
 Node,23,ZONE OFFICE WHOLEBUILDING - SM OFFICE 2 A END_B - STORY GROUND PSZ-AC SUPPLY OUTLET NODE,Air,6
 Node,24,ZONE OFFICE WHOLEBUILDING - SM OFFICE 2 A END_B - STORY GROUND PSZ-AC DEMAND INLET NODE,Air,3
 Node,25,ZONE OFFICE WHOLEBUILDING - SM OFFICE 2 B  - STORY GROUND PSZ-AC SUPPLY OUTLET NODE,Air,6
 Node,26,ZONE OFFICE WHOLEBUILDING - SM OFFICE 2 B  - STORY GROUND PSZ-AC DEMAND INLET NODE,Air,3
 Node,27,ZONE OFFICE WHOLEBUILDING - SM OFFICE 2 B END_A - STORY GROUND PSZ-AC SUPPLY OUTLET NODE,Air,6
 Node,28,ZONE OFFICE WHOLEBUILDING - SM OFFICE 2 B END_A - STORY GROUND PSZ-AC DEMAND INLET NODE,Air,3
 Node,29,ZONE OFFICE WHOLEBUILDING - SM OFFICE 2 B END_B - STORY GROUND PSZ-AC SUPPLY OUTLET NODE,Air,6
 Node,30,ZONE OFFICE WHOLEBUILDING - SM OFFICE 2 B END_B - STORY GROUND PSZ-AC DEMAND INLET NODE,Air,3
 Node,31,ZONE OFFICE WHOLEBUILDING - SM OFFICE 2 C  - STORY GROUND PSZ-AC SUPPLY OUTLET NODE,Air,6
 Node,32,ZONE OFFICE WHOLEBUILDING - SM OFFICE 2 C  - STORY GROUND PSZ-AC DEMAND INLET NODE,Air,3
 Node,33,ZONE OFFICE WHOLEBUILDING - SM OFFICE 2 C END_A - STORY GROUND PSZ-AC SUPPLY OUTLET NODE,Air,6
 Node,34,ZONE OFFICE WHOLEBUILDING - SM OFFICE 2 C END_A - STORY GROUND PSZ-AC DEMAND INLET NODE,Air,3
 Node,35,ZONE OFFICE WHOLEBUILDING - SM OFFICE 2 C END_B - STORY GROUND PSZ-AC SUPPLY OUTLET NODE,Air,6
 Node,36,ZONE OFFICE WHOLEBUILDING - SM OFFICE 2 C END_B - STORY GROUND PSZ-AC DEMAND INLET NODE,Air,3
 Node,37,ZONE OFFICE WHOLEBUILDING - SM OFFICE 2 A  - STORY GROUND PSZ-AC SUPPLY INLET NODE,Air,3
 Node,38,ZONE OFFICE WHOLEBUILDING - SM OFFICE 2 A  - STORY GROUND PSZ-AC MIXED AIR NODE,Air,6
 Node,39,ZONE OFFICE WHOLEBUILDING - SM OFFICE 2 A END_A - STORY GROUND PSZ-AC SUPPLY INLET NODE,Air,3
 Node,40,ZONE OFFICE WHOLEBUILDING - SM OFFICE 2 A END_A - STORY GROUND PSZ-AC MIXED AIR NODE,Air,6
 Node,41,ZONE OFFICE WHOLEBUILDING - SM OFFICE 2 A END_B - STORY GROUND PSZ-AC SUPPLY INLET NODE,Air,3
 Node,42,ZONE OFFICE WHOLEBUILDING - SM OFFICE 2 A END_B - STORY GROUND PSZ-AC MIXED AIR NODE,Air,6
 Node,43,ZONE OFFICE WHOLEBUILDING - SM OFFICE 2 B  - STORY GROUND PSZ-AC SUPPLY INLET NODE,Air,3
 Node,44,ZONE OFFICE WHOLEBUILDING - SM OFFICE 2 B  - STORY GROUND PSZ-AC MIXED AIR NODE,Air,6
 Node,45,ZONE OFFICE WHOLEBUILDING - SM OFFICE 2 B END_A - STORY GROUND PSZ-AC SUPPLY INLET NODE,Air,3
 Node,46,ZONE OFFICE WHOLEBUILDING - SM OFFICE 2 B END_A - STORY GROUND PSZ-AC MIXED AIR NODE,Air,6
 Node,47,ZONE OFFICE WHOLEBUILDING - SM OFFICE 2 B END_B - STORY GROUND PSZ-AC SUPPLY INLET NODE,Air,3
 Node,48,ZONE OFFICE WHOLEBUILDING - SM OFFICE 2 B END_B - STORY GROUND PSZ-AC MIXED AIR NODE,Air,6
 Node,49,ZONE OFFICE WHOLEBUILDING - SM OFFICE 2 C  - STORY GROUND PSZ-AC SUPPLY INLET NODE,Air,3
 Node,50,ZONE OFFICE WHOLEBUILDING - SM OFFICE 2 C  - STORY GROUND PSZ-AC MIXED AIR NODE,Air,6
 Node,51,ZONE OFFICE WHOLEBUILDING - SM OFFICE 2 C END_A - STORY GROUND PSZ-AC SUPPLY INLET NODE,Air,3
 Node,52,ZONE OFFICE WHOLEBUILDING - SM OFFICE 2 C END_A - STORY GROUND PSZ-AC MIXED AIR NODE,Air,6
 Node,53,ZONE OFFICE WHOLEBUILDING - SM OFFICE 2 C END_B - STORY GROUND PSZ-AC SUPPLY INLET NODE,Air,3
 Node,54,ZONE OFFICE WHOLEBUILDING - SM OFFICE 2 C END_B - STORY GROUND PSZ-AC MIXED AIR NODE,Air,6
 Node,55,MAIN SERVICE WATER LOOP SUPPLY INLET NODE,Water,2
 Node,56,MAIN SERVICE WATER LOOP WATER MAINS PRESSURE DRIVEN OUTLET WATER NODE,Water,1
 Node,57,40GAL ELECTRICITY WATER HEATER - 40KBTU/HR 1.0 THERM EFF SUPPLY INLET WATER NODE,Water,1
 Node,58,40GAL ELECTRICITY WATER HEATER - 40KBTU/HR 1.0 THERM EFF SUPPLY OUTLET WATER NODE,Water,1
 Node,59,PIPE ADIABATIC 1 INLET WATER NODE,Water,1
 Node,60,PIPE ADIABATIC 1 OUTLET WATER NODE,Water,1
 Node,61,PIPE ADIABATIC 3 INLET WATER NODE,Water,1
 Node,62,MAIN SERVICE WATER LOOP SUPPLY OUTLET NODE,Water,4
 Node,63,MAIN SERVICE WATER LOOP DEMAND INLET NODE,Water,2
 Node,64,MAIN SERVICE WATER LOOP DEMAND INLET PIPE NODE,Water,1
 Node,65,PIPE ADIABATIC 2 INLET WATER NODE,Water,1
 Node,66,PIPE ADIABATIC 2 OUTLET WATER NODE,Water,1
 Node,67,MAIN SERVICE WATER LOOP DEMAND BYPASS PIPE INLET NODE,Water,1
 Node,68,MAIN SERVICE WATER LOOP DEMAND BYPASS PIPE OUTLET NODE,Water,1
 Node,69,PIPE ADIABATIC 4 INLET WATER NODE,Water,1
 Node,70,MAIN SERVICE WATER LOOP DEMAND OUTLET NODE,Water,2
 Node,71,OFFICE SHARED SERVICE WATER LOOP SUPPLY INLET NODE,Water,2
 Node,72,OFFICE SHARED SERVICE WATER LOOP CIRCULATOR PUMP OUTLET WATER NODE,Water,1
 Node,73,40GAL NATURALGAS WATER HEATER - 3KBTU/HR SUPPLY INLET WATER NODE,Water,1
 Node,74,40GAL NATURALGAS WATER HEATER - 3KBTU/HR SUPPLY OUTLET WATER NODE,Water,1
 Node,75,PIPE ADIABATIC 5 INLET WATER NODE,Water,1
 Node,76,PIPE ADIABATIC 5 OUTLET WATER NODE,Water,1
 Node,77,PIPE ADIABATIC 7 INLET WATER NODE,Water,1
 Node,78,OFFICE SHARED SERVICE WATER LOOP SUPPLY OUTLET NODE,Water,4
 Node,79,OFFICE SHARED SERVICE WATER LOOP DEMAND INLET NODE,Water,2
 Node,80,OFFICE SHARED SERVICE WATER LOOP PIPE 132.5111316078767FT OUTLET WATER NODE,Water,1
 Node,81,PIPE ADIABATIC 6 INLET WATER NODE,Water,1
 Node,82,PIPE ADIABATIC 6 OUTLET WATER NODE,Water,1
 Node,83,OFFICE WHOLEBUILDING - SM OFFICE 2 - 90.1-2004 WUC 0.04GPM AT 140F INLET WATER NODE,Water,1
 Node,84,OFFICE WHOLEBUILDING - SM OFFICE 2 - 90.1-2004 WUC 0.04GPM AT 140F OUTLET WATER NODE,Water,1
 Node,85,OFFICE SHARED SERVICE WATER LOOP DEMAND BYPASS PIPE INLET NODE,Water,1
 Node,86,OFFICE SHARED SERVICE WATER LOOP DEMAND BYPASS PIPE OUTLET NODE,Water,1
 Node,87,PIPE ADIABATIC 8 INLET WATER NODE,Water,1
 Node,88,OFFICE SHARED SERVICE WATER LOOP DEMAND OUTLET NODE,Water,2
 Node,89,ZONE OFFICE WHOLEBUILDING - SM OFFICE 2 A  - STORY GROUND ZONE AIR NODE,Air,1
 Node,90,ZONE OFFICE WHOLEBUILDING - SM OFFICE 2 A END_A - STORY GROUND ZONE AIR NODE,Air,1
 Node,91,ZONE OFFICE WHOLEBUILDING - SM OFFICE 2 A END_B - STORY GROUND ZONE AIR NODE,Air,1
 Node,92,ZONE OFFICE WHOLEBUILDING - SM OFFICE 2 B  - STORY GROUND ZONE AIR NODE,Air,1
 Node,93,ZONE OFFICE WHOLEBUILDING - SM OFFICE 2 B END_A - STORY GROUND ZONE AIR NODE,Air,1
 Node,94,ZONE OFFICE WHOLEBUILDING - SM OFFICE 2 B END_B - STORY GROUND ZONE AIR NODE,Air,1
 Node,95,ZONE OFFICE WHOLEBUILDING - SM OFFICE 2 C  - STORY GROUND ZONE AIR NODE,Air,1
 Node,96,ZONE OFFICE WHOLEBUILDING - SM OFFICE 2 C END_A - STORY GROUND ZONE AIR NODE,Air,1
 Node,97,ZONE OFFICE WHOLEBUILDING - SM OFFICE 2 C END_B - STORY GROUND ZONE AIR NODE,Air,1
 Node,98,ZONE OFFICE WHOLEBUILDING - SM OFFICE 2 A  - STORY GROUND PSZ-AC DEMAND OUTLET NODE,Air,2
 Node,99,ZONE OFFICE WHOLEBUILDING - SM OFFICE 2 A END_A - STORY GROUND PSZ-AC DEMAND OUTLET NODE,Air,2
 Node,100,ZONE OFFICE WHOLEBUILDING - SM OFFICE 2 A END_B - STORY GROUND PSZ-AC DEMAND OUTLET NODE,Air,2
 Node,101,ZONE OFFICE WHOLEBUILDING - SM OFFICE 2 B  - STORY GROUND PSZ-AC DEMAND OUTLET NODE,Air,2
 Node,102,ZONE OFFICE WHOLEBUILDING - SM OFFICE 2 B END_A - STORY GROUND PSZ-AC DEMAND OUTLET NODE,Air,2
 Node,103,ZONE OFFICE WHOLEBUILDING - SM OFFICE 2 B END_B - STORY GROUND PSZ-AC DEMAND OUTLET NODE,Air,2
 Node,104,ZONE OFFICE WHOLEBUILDING - SM OFFICE 2 C  - STORY GROUND PSZ-AC DEMAND OUTLET NODE,Air,2
 Node,105,ZONE OFFICE WHOLEBUILDING - SM OFFICE 2 C END_A - STORY GROUND PSZ-AC DEMAND OUTLET NODE,Air,2
 Node,106,ZONE OFFICE WHOLEBUILDING - SM OFFICE 2 C END_B - STORY GROUND PSZ-AC DEMAND OUTLET NODE,Air,2
 Node,107,ZONE OFFICE WHOLEBUILDING - SM OFFICE 2 A  - STORY GROUND PSZ-AC OUTDOOR AIR NODE,Air,2
 Node,108,ZONE OFFICE WHOLEBUILDING - SM OFFICE 2 A END_A - STORY GROUND PSZ-AC OUTDOOR AIR NODE,Air,2
 Node,109,ZONE OFFICE WHOLEBUILDING - SM OFFICE 2 A END_B - STORY GROUND PSZ-AC OUTDOOR AIR NODE,Air,2
 Node,110,ZONE OFFICE WHOLEBUILDING - SM OFFICE 2 B  - STORY GROUND PSZ-AC OUTDOOR AIR NODE,Air,2
 Node,111,ZONE OFFICE WHOLEBUILDING - SM OFFICE 2 B END_A - STORY GROUND PSZ-AC OUTDOOR AIR NODE,Air,2
 Node,112,ZONE OFFICE WHOLEBUILDING - SM OFFICE 2 B END_B - STORY GROUND PSZ-AC OUTDOOR AIR NODE,Air,2
 Node,113,ZONE OFFICE WHOLEBUILDING - SM OFFICE 2 C  - STORY GROUND PSZ-AC OUTDOOR AIR NODE,Air,2
 Node,114,ZONE OFFICE WHOLEBUILDING - SM OFFICE 2 C END_A - STORY GROUND PSZ-AC OUTDOOR AIR NODE,Air,2
 Node,115,ZONE OFFICE WHOLEBUILDING - SM OFFICE 2 C END_B - STORY GROUND PSZ-AC OUTDOOR AIR NODE,Air,2
 Node,116,MODEL OUTDOOR AIR NODE,Air,0
 Node,117,ZONE OFFICE WHOLEBUILDING - SM OFFICE 2 A  - STORY GROUND PSZ-AC UNITARY AC HEATING COIL - FAN NODE,Air,2
 Node,118,ZONE OFFICE WHOLEBUILDING - SM OFFICE 2 A  - STORY GROUND PSZ-AC UNITARY AC FAN - SUPPLEMENTAL COIL NODE,Air,2
 Node,119,ZONE OFFICE WHOLEBUILDING - SM OFFICE 2 A END_A - STORY GROUND PSZ-AC UNITARY AC HEATING COIL - FAN NODE,Air,2
 Node,120,ZONE OFFICE WHOLEBUILDING - SM OFFICE 2 A END_A - STORY GROUND PSZ-AC UNITARY AC FAN - SUPPLEMENTAL COIL NODE,Air,2
 Node,121,ZONE OFFICE WHOLEBUILDING - SM OFFICE 2 A END_B - STORY GROUND PSZ-AC UNITARY AC HEATING COIL - FAN NODE,Air,2
 Node,122,ZONE OFFICE WHOLEBUILDING - SM OFFICE 2 A END_B - STORY GROUND PSZ-AC UNITARY AC FAN - SUPPLEMENTAL COIL NODE,Air,2
 Node,123,ZONE OFFICE WHOLEBUILDING - SM OFFICE 2 B  - STORY GROUND PSZ-AC UNITARY AC HEATING COIL - FAN NODE,Air,2
 Node,124,ZONE OFFICE WHOLEBUILDING - SM OFFICE 2 B  - STORY GROUND PSZ-AC UNITARY AC FAN - SUPPLEMENTAL COIL NODE,Air,2
 Node,125,ZONE OFFICE WHOLEBUILDING - SM OFFICE 2 B END_A - STORY GROUND PSZ-AC UNITARY AC HEATING COIL - FAN NODE,Air,2
 Node,126,ZONE OFFICE WHOLEBUILDING - SM OFFICE 2 B END_A - STORY GROUND PSZ-AC UNITARY AC FAN - SUPPLEMENTAL COIL NODE,Air,2
 Node,127,ZONE OFFICE WHOLEBUILDING - SM OFFICE 2 B END_B - STORY GROUND PSZ-AC UNITARY AC HEATING COIL - FAN NODE,Air,2
 Node,128,ZONE OFFICE WHOLEBUILDING - SM OFFICE 2 B END_B - STORY GROUND PSZ-AC UNITARY AC FAN - SUPPLEMENTAL COIL NODE,Air,2
 Node,129,ZONE OFFICE WHOLEBUILDING - SM OFFICE 2 C  - STORY GROUND PSZ-AC UNITARY AC HEATING COIL - FAN NODE,Air,2
 Node,130,ZONE OFFICE WHOLEBUILDING - SM OFFICE 2 C  - STORY GROUND PSZ-AC UNITARY AC FAN - SUPPLEMENTAL COIL NODE,Air,2
 Node,131,ZONE OFFICE WHOLEBUILDING - SM OFFICE 2 C END_A - STORY GROUND PSZ-AC UNITARY AC HEATING COIL - FAN NODE,Air,2
 Node,132,ZONE OFFICE WHOLEBUILDING - SM OFFICE 2 C END_A - STORY GROUND PSZ-AC UNITARY AC FAN - SUPPLEMENTAL COIL NODE,Air,2
 Node,133,ZONE OFFICE WHOLEBUILDING - SM OFFICE 2 C END_B - STORY GROUND PSZ-AC UNITARY AC HEATING COIL - FAN NODE,Air,2
 Node,134,ZONE OFFICE WHOLEBUILDING - SM OFFICE 2 C END_B - STORY GROUND PSZ-AC UNITARY AC FAN - SUPPLEMENTAL COIL NODE,Air,2
 Node,135,ZONE OFFICE WHOLEBUILDING - SM OFFICE 2 A  - STORY GROUND PSZ-AC DIFFUSER INLET AIR NODE,Air,1
 Node,136,ZONE OFFICE WHOLEBUILDING - SM OFFICE 2 A END_A - STORY GROUND PSZ-AC DIFFUSER INLET AIR NODE,Air,1
 Node,137,ZONE OFFICE WHOLEBUILDING - SM OFFICE 2 A END_B - STORY GROUND PSZ-AC DIFFUSER INLET AIR NODE,Air,1
 Node,138,ZONE OFFICE WHOLEBUILDING - SM OFFICE 2 B  - STORY GROUND PSZ-AC DIFFUSER INLET AIR NODE,Air,1
 Node,139,ZONE OFFICE WHOLEBUILDING - SM OFFICE 2 B END_A - STORY GROUND PSZ-AC DIFFUSER INLET AIR NODE,Air,1
 Node,140,ZONE OFFICE WHOLEBUILDING - SM OFFICE 2 B END_B - STORY GROUND PSZ-AC DIFFUSER INLET AIR NODE,Air,1
 Node,141,ZONE OFFICE WHOLEBUILDING - SM OFFICE 2 C  - STORY GROUND PSZ-AC DIFFUSER INLET AIR NODE,Air,1
 Node,142,ZONE OFFICE WHOLEBUILDING - SM OFFICE 2 C END_A - STORY GROUND PSZ-AC DIFFUSER INLET AIR NODE,Air,1
 Node,143,ZONE OFFICE WHOLEBUILDING - SM OFFICE 2 C END_B - STORY GROUND PSZ-AC DIFFUSER INLET AIR NODE,Air,1
 Node,144,ZONE OFFICE WHOLEBUILDING - SM OFFICE 2 A  - STORY GROUND PSZ-AC RELIEF AIR NODE,Air,1
 Node,145,ZONE OFFICE WHOLEBUILDING - SM OFFICE 2 A END_A - STORY GROUND PSZ-AC RELIEF AIR NODE,Air,1
 Node,146,ZONE OFFICE WHOLEBUILDING - SM OFFICE 2 A END_B - STORY GROUND PSZ-AC RELIEF AIR NODE,Air,1
 Node,147,ZONE OFFICE WHOLEBUILDING - SM OFFICE 2 B  - STORY GROUND PSZ-AC RELIEF AIR NODE,Air,1
 Node,148,ZONE OFFICE WHOLEBUILDING - SM OFFICE 2 B END_A - STORY GROUND PSZ-AC RELIEF AIR NODE,Air,1
 Node,149,ZONE OFFICE WHOLEBUILDING - SM OFFICE 2 B END_B - STORY GROUND PSZ-AC RELIEF AIR NODE,Air,1
 Node,150,ZONE OFFICE WHOLEBUILDING - SM OFFICE 2 C  - STORY GROUND PSZ-AC RELIEF AIR NODE,Air,1
 Node,151,ZONE OFFICE WHOLEBUILDING - SM OFFICE 2 C END_A - STORY GROUND PSZ-AC RELIEF AIR NODE,Air,1
 Node,152,ZONE OFFICE WHOLEBUILDING - SM OFFICE 2 C END_B - STORY GROUND PSZ-AC RELIEF AIR NODE,Air,1
 Node,153,ZONE OFFICE WHOLEBUILDING - SM OFFICE 2 A  - STORY GROUND PSZ-AC UNITARY AC COOLING COIL - HEATING COIL NODE,Air,1
 Node,154,ZONE OFFICE WHOLEBUILDING - SM OFFICE 2 A END_A - STORY GROUND PSZ-AC UNITARY AC COOLING COIL - HEATING COIL NODE,Air,1
 Node,155,ZONE OFFICE WHOLEBUILDING - SM OFFICE 2 A END_B - STORY GROUND PSZ-AC UNITARY AC COOLING COIL - HEATING COIL NODE,Air,1
 Node,156,ZONE OFFICE WHOLEBUILDING - SM OFFICE 2 B  - STORY GROUND PSZ-AC UNITARY AC COOLING COIL - HEATING COIL NODE,Air,1
 Node,157,ZONE OFFICE WHOLEBUILDING - SM OFFICE 2 B END_A - STORY GROUND PSZ-AC UNITARY AC COOLING COIL - HEATING COIL NODE,Air,1
 Node,158,ZONE OFFICE WHOLEBUILDING - SM OFFICE 2 B END_B - STORY GROUND PSZ-AC UNITARY AC COOLING COIL - HEATING COIL NODE,Air,1
 Node,159,ZONE OFFICE WHOLEBUILDING - SM OFFICE 2 C  - STORY GROUND PSZ-AC UNITARY AC COOLING COIL - HEATING COIL NODE,Air,1
 Node,160,ZONE OFFICE WHOLEBUILDING - SM OFFICE 2 C END_A - STORY GROUND PSZ-AC UNITARY AC COOLING COIL - HEATING COIL NODE,Air,1
 Node,161,ZONE OFFICE WHOLEBUILDING - SM OFFICE 2 C END_B - STORY GROUND PSZ-AC UNITARY AC COOLING COIL - HEATING COIL NODE,Air,1
! ===============================================================
! Suspicious nodes have 0 references.  It is normal for some nodes, however.
! Listing nodes with 0 references (culled from previous list):
! <Suspicious Node>,<NodeNumber>,<Node Name>,<Node Fluid Type>,<# Times Node Referenced After Definition>
 Suspicious Node,116,MODEL OUTDOOR AIR NODE,Air,0
! ===============================================================
! <#Branch Lists>,<Number of Branch Lists>
 #Branch Lists,13
! <Branch List>,<Branch List Count>,<Branch List Name>,<Loop Name>,<Loop Type>,<Number of Branches>
! <Branch>,<Branch Count>,<Branch Name>,<Loop Name>,<Loop Type>,<Branch Inlet Node Name>,<Branch Outlet Node Name>
 Branch List,1,ZONE OFFICE WHOLEBUILDING - SM OFFICE 2 A  - STORY GROUND PSZ-AC SUPPLY BRANCHES,ZONE OFFICE WHOLEBUILDING - SM OFFICE 2 A  - STORY GROUND PSZ-AC,Air,1
   Branch,1,ZONE OFFICE WHOLEBUILDING - SM OFFICE 2 A  - STORY GROUND PSZ-AC MAIN BRANCH,ZONE OFFICE WHOLEBUILDING - SM OFFICE 2 A  - STORY GROUND PSZ-AC,Air,ZONE OFFICE WHOLEBUILDING - SM OFFICE 2 A  - STORY GROUND PSZ-AC SUPPLY INLET NODE,ZONE OFFICE WHOLEBUILDING - SM OFFICE 2 A  - STORY GROUND PSZ-AC SUPPLY OUTLET NODE
 Branch List,2,ZONE OFFICE WHOLEBUILDING - SM OFFICE 2 A END_A - STORY GROUND PSZ-AC SUPPLY BRANCHES,ZONE OFFICE WHOLEBUILDING - SM OFFICE 2 A END_A - STORY GROUND PSZ-AC,Air,1
   Branch,1,ZONE OFFICE WHOLEBUILDING - SM OFFICE 2 A END_A - STORY GROUND PSZ-AC MAIN BRANCH,ZONE OFFICE WHOLEBUILDING - SM OFFICE 2 A END_A - STORY GROUND PSZ-AC,Air,ZONE OFFICE WHOLEBUILDING - SM OFFICE 2 A END_A - STORY GROUND PSZ-AC SUPPLY INLET NODE,ZONE OFFICE WHOLEBUILDING - SM OFFICE 2 A END_A - STORY GROUND PSZ-AC SUPPLY OUTLET NODE
 Branch List,3,ZONE OFFICE WHOLEBUILDING - SM OFFICE 2 A END_B - STORY GROUND PSZ-AC SUPPLY BRANCHES,ZONE OFFICE WHOLEBUILDING - SM OFFICE 2 A END_B - STORY GROUND PSZ-AC,Air,1
   Branch,1,ZONE OFFICE WHOLEBUILDING - SM OFFICE 2 A END_B - STORY GROUND PSZ-AC MAIN BRANCH,ZONE OFFICE WHOLEBUILDING - SM OFFICE 2 A END_B - STORY GROUND PSZ-AC,Air,ZONE OFFICE WHOLEBUILDING - SM OFFICE 2 A END_B - STORY GROUND PSZ-AC SUPPLY INLET NODE,ZONE OFFICE WHOLEBUILDING - SM OFFICE 2 A END_B - STORY GROUND PSZ-AC SUPPLY OUTLET NODE
 Branch List,4,ZONE OFFICE WHOLEBUILDING - SM OFFICE 2 B  - STORY GROUND PSZ-AC SUPPLY BRANCHES,ZONE OFFICE WHOLEBUILDING - SM OFFICE 2 B  - STORY GROUND PSZ-AC,Air,1
   Branch,1,ZONE OFFICE WHOLEBUILDING - SM OFFICE 2 B  - STORY GROUND PSZ-AC MAIN BRANCH,ZONE OFFICE WHOLEBUILDING - SM OFFICE 2 B  - STORY GROUND PSZ-AC,Air,ZONE OFFICE WHOLEBUILDING - SM OFFICE 2 B  - STORY GROUND PSZ-AC SUPPLY INLET NODE,ZONE OFFICE WHOLEBUILDING - SM OFFICE 2 B  - STORY GROUND PSZ-AC SUPPLY OUTLET NODE
 Branch List,5,ZONE OFFICE WHOLEBUILDING - SM OFFICE 2 B END_A - STORY GROUND PSZ-AC SUPPLY BRANCHES,ZONE OFFICE WHOLEBUILDING - SM OFFICE 2 B END_A - STORY GROUND PSZ-AC,Air,1
   Branch,1,ZONE OFFICE WHOLEBUILDING - SM OFFICE 2 B END_A - STORY GROUND PSZ-AC MAIN BRANCH,ZONE OFFICE WHOLEBUILDING - SM OFFICE 2 B END_A - STORY GROUND PSZ-AC,Air,ZONE OFFICE WHOLEBUILDING - SM OFFICE 2 B END_A - STORY GROUND PSZ-AC SUPPLY INLET NODE,ZONE OFFICE WHOLEBUILDING - SM OFFICE 2 B END_A - STORY GROUND PSZ-AC SUPPLY OUTLET NODE
 Branch List,6,ZONE OFFICE WHOLEBUILDING - SM OFFICE 2 B END_B - STORY GROUND PSZ-AC SUPPLY BRANCHES,ZONE OFFICE WHOLEBUILDING - SM OFFICE 2 B END_B - STORY GROUND PSZ-AC,Air,1
   Branch,1,ZONE OFFICE WHOLEBUILDING - SM OFFICE 2 B END_B - STORY GROUND PSZ-AC MAIN BRANCH,ZONE OFFICE WHOLEBUILDING - SM OFFICE 2 B END_B - STORY GROUND PSZ-AC,Air,ZONE OFFICE WHOLEBUILDING - SM OFFICE 2 B END_B - STORY GROUND PSZ-AC SUPPLY INLET NODE,ZONE OFFICE WHOLEBUILDING - SM OFFICE 2 B END_B - STORY GROUND PSZ-AC SUPPLY OUTLET NODE
 Branch List,7,ZONE OFFICE WHOLEBUILDING - SM OFFICE 2 C  - STORY GROUND PSZ-AC SUPPLY BRANCHES,ZONE OFFICE WHOLEBUILDING - SM OFFICE 2 C  - STORY GROUND PSZ-AC,Air,1
   Branch,1,ZONE OFFICE WHOLEBUILDING - SM OFFICE 2 C  - STORY GROUND PSZ-AC MAIN BRANCH,ZONE OFFICE WHOLEBUILDING - SM OFFICE 2 C  - STORY GROUND PSZ-AC,Air,ZONE OFFICE WHOLEBUILDING - SM OFFICE 2 C  - STORY GROUND PSZ-AC SUPPLY INLET NODE,ZONE OFFICE WHOLEBUILDING - SM OFFICE 2 C  - STORY GROUND PSZ-AC SUPPLY OUTLET NODE
 Branch List,8,ZONE OFFICE WHOLEBUILDING - SM OFFICE 2 C END_A - STORY GROUND PSZ-AC SUPPLY BRANCHES,ZONE OFFICE WHOLEBUILDING - SM OFFICE 2 C END_A - STORY GROUND PSZ-AC,Air,1
   Branch,1,ZONE OFFICE WHOLEBUILDING - SM OFFICE 2 C END_A - STORY GROUND PSZ-AC MAIN BRANCH,ZONE OFFICE WHOLEBUILDING - SM OFFICE 2 C END_A - STORY GROUND PSZ-AC,Air,ZONE OFFICE WHOLEBUILDING - SM OFFICE 2 C END_A - STORY GROUND PSZ-AC SUPPLY INLET NODE,ZONE OFFICE WHOLEBUILDING - SM OFFICE 2 C END_A - STORY GROUND PSZ-AC SUPPLY OUTLET NODE
 Branch List,9,ZONE OFFICE WHOLEBUILDING - SM OFFICE 2 C END_B - STORY GROUND PSZ-AC SUPPLY BRANCHES,ZONE OFFICE WHOLEBUILDING - SM OFFICE 2 C END_B - STORY GROUND PSZ-AC,Air,1
   Branch,1,ZONE OFFICE WHOLEBUILDING - SM OFFICE 2 C END_B - STORY GROUND PSZ-AC MAIN BRANCH,ZONE OFFICE WHOLEBUILDING - SM OFFICE 2 C END_B - STORY GROUND PSZ-AC,Air,ZONE OFFICE WHOLEBUILDING - SM OFFICE 2 C END_B - STORY GROUND PSZ-AC SUPPLY INLET NODE,ZONE OFFICE WHOLEBUILDING - SM OFFICE 2 C END_B - STORY GROUND PSZ-AC SUPPLY OUTLET NODE
 Branch List,10,MAIN SERVICE WATER LOOP SUPPLY BRANCHES,MAIN SERVICE WATER LOOP,Plant Supply,4
   Branch,1,MAIN SERVICE WATER LOOP SUPPLY INLET BRANCH,MAIN SERVICE WATER LOOP,Plant Supply,MAIN SERVICE WATER LOOP SUPPLY INLET NODE,MAIN SERVICE WATER LOOP WATER MAINS PRESSURE DRIVEN OUTLET WATER NODE
   Branch,2,MAIN SERVICE WATER LOOP SUPPLY BRANCH 1,MAIN SERVICE WATER LOOP,Plant Supply,40GAL ELECTRICITY WATER HEATER - 40KBTU/HR 1.0 THERM EFF SUPPLY INLET WATER NODE,40GAL ELECTRICITY WATER HEATER - 40KBTU/HR 1.0 THERM EFF SUPPLY OUTLET WATER NODE
   Branch,3,MAIN SERVICE WATER LOOP SUPPLY BRANCH 2,MAIN SERVICE WATER LOOP,Plant Supply,PIPE ADIABATIC 1 INLET WATER NODE,PIPE ADIABATIC 1 OUTLET WATER NODE
   Branch,4,MAIN SERVICE WATER LOOP SUPPLY OUTLET BRANCH,MAIN SERVICE WATER LOOP,Plant Supply,PIPE ADIABATIC 3 INLET WATER NODE,MAIN SERVICE WATER LOOP SUPPLY OUTLET NODE
 Branch List,11,MAIN SERVICE WATER LOOP DEMAND BRANCHES,MAIN SERVICE WATER LOOP,Plant Demand,4
   Branch,1,MAIN SERVICE WATER LOOP DEMAND INLET BRANCH,MAIN SERVICE WATER LOOP,Plant Demand,MAIN SERVICE WATER LOOP DEMAND INLET NODE,MAIN SERVICE WATER LOOP DEMAND INLET PIPE NODE
   Branch,2,MAIN SERVICE WATER LOOP DEMAND BRANCH 1,MAIN SERVICE WATER LOOP,Plant Demand,PIPE ADIABATIC 2 INLET WATER NODE,PIPE ADIABATIC 2 OUTLET WATER NODE
   Branch,3,MAIN SERVICE WATER LOOP DEMAND BYPASS BRANCH,MAIN SERVICE WATER LOOP,Plant Demand,MAIN SERVICE WATER LOOP DEMAND BYPASS PIPE INLET NODE,MAIN SERVICE WATER LOOP DEMAND BYPASS PIPE OUTLET NODE
   Branch,4,MAIN SERVICE WATER LOOP DEMAND OUTLET BRANCH,MAIN SERVICE WATER LOOP,Plant Demand,PIPE ADIABATIC 4 INLET WATER NODE,MAIN SERVICE WATER LOOP DEMAND OUTLET NODE
 Branch List,12,OFFICE SHARED SERVICE WATER LOOP SUPPLY BRANCHES,OFFICE SHARED SERVICE WATER LOOP,Plant Supply,4
   Branch,1,OFFICE SHARED SERVICE WATER LOOP SUPPLY INLET BRANCH,OFFICE SHARED SERVICE WATER LOOP,Plant Supply,OFFICE SHARED SERVICE WATER LOOP SUPPLY INLET NODE,OFFICE SHARED SERVICE WATER LOOP CIRCULATOR PUMP OUTLET WATER NODE
   Branch,2,OFFICE SHARED SERVICE WATER LOOP SUPPLY BRANCH 1,OFFICE SHARED SERVICE WATER LOOP,Plant Supply,40GAL NATURALGAS WATER HEATER - 3KBTU/HR SUPPLY INLET WATER NODE,40GAL NATURALGAS WATER HEATER - 3KBTU/HR SUPPLY OUTLET WATER NODE
   Branch,3,OFFICE SHARED SERVICE WATER LOOP SUPPLY BRANCH 2,OFFICE SHARED SERVICE WATER LOOP,Plant Supply,PIPE ADIABATIC 5 INLET WATER NODE,PIPE ADIABATIC 5 OUTLET WATER NODE
   Branch,4,OFFICE SHARED SERVICE WATER LOOP SUPPLY OUTLET BRANCH,OFFICE SHARED SERVICE WATER LOOP,Plant Supply,PIPE ADIABATIC 7 INLET WATER NODE,OFFICE SHARED SERVICE WATER LOOP SUPPLY OUTLET NODE
 Branch List,13,OFFICE SHARED SERVICE WATER LOOP DEMAND BRANCHES,OFFICE SHARED SERVICE WATER LOOP,Plant Demand,5
   Branch,1,OFFICE SHARED SERVICE WATER LOOP DEMAND INLET BRANCH,OFFICE SHARED SERVICE WATER LOOP,Plant Demand,OFFICE SHARED SERVICE WATER LOOP DEMAND INLET NODE,OFFICE SHARED SERVICE WATER LOOP PIPE 132.5111316078767FT OUTLET WATER NODE
   Branch,2,OFFICE SHARED SERVICE WATER LOOP DEMAND BRANCH 1,OFFICE SHARED SERVICE WATER LOOP,Plant Demand,PIPE ADIABATIC 6 INLET WATER NODE,PIPE ADIABATIC 6 OUTLET WATER NODE
   Branch,3,OFFICE SHARED SERVICE WATER LOOP DEMAND BRANCH 2,OFFICE SHARED SERVICE WATER LOOP,Plant Demand,OFFICE WHOLEBUILDING - SM OFFICE 2 - 90.1-2004 WUC 0.04GPM AT 140F INLET WATER NODE,OFFICE WHOLEBUILDING - SM OFFICE 2 - 90.1-2004 WUC 0.04GPM AT 140F OUTLET WATER NODE
   Branch,4,OFFICE SHARED SERVICE WATER LOOP DEMAND BYPASS BRANCH,OFFICE SHARED SERVICE WATER LOOP,Plant Demand,OFFICE SHARED SERVICE WATER LOOP DEMAND BYPASS PIPE INLET NODE,OFFICE SHARED SERVICE WATER LOOP DEMAND BYPASS PIPE OUTLET NODE
   Branch,5,OFFICE SHARED SERVICE WATER LOOP DEMAND OUTLET BRANCH,OFFICE SHARED SERVICE WATER LOOP,Plant Demand,PIPE ADIABATIC 8 INLET WATER NODE,OFFICE SHARED SERVICE WATER LOOP DEMAND OUTLET NODE
! ===============================================================
! <#Supply Air Paths>,<Number of Supply Air Paths>
 #Supply Air Paths,9
! <Supply Air Path>,<Supply Air Path Count>,<Supply Air Path Name>,<AirLoopHVAC Name>
! <#Components on Supply Air Path>,<Number of Components>
! <Supply Air Path Component>,<Component Count>,<Component Type>,<Component Name>,<AirLoopHVAC Name>
! <#Outlet Nodes on Supply Air Path Component>,<Number of Nodes>
! <Supply Air Path Component Nodes>,<Node Count>,<Component Type>,<Component Name>,<Inlet Node Name>,<Outlet Node Name>,<AirLoopHVAC Name>
 Supply Air Path,1,ZONE OFFICE WHOLEBUILDING - SM OFFICE 2 A  - STORY GROUND PSZ-AC ZONE OFFICE WHOLEBUILDING - SM OFFICE 2 A  - STORY GROUND PSZ-AC DEMAND INLET NODE SUPPLY PATH,ZONE OFFICE WHOLEBUILDING - SM OFFICE 2 A  - STORY GROUND PSZ-AC
   #Components on Supply Air Path,1
   Supply Air Path Component,1,AIRLOOPHVAC:ZONESPLITTER,AIR LOOP HVAC ZONE SPLITTER 1,ZONE OFFICE WHOLEBUILDING - SM OFFICE 2 A  - STORY GROUND PSZ-AC
     #Outlet Nodes on Supply Air Path Component,1
     Supply Air Path Component Nodes,1,AIRLOOPHVAC:ZONESPLITTER,AIR LOOP HVAC ZONE SPLITTER 1,ZONE OFFICE WHOLEBUILDING - SM OFFICE 2 A  - STORY GROUND PSZ-AC DEMAND INLET NODE,ZONE OFFICE WHOLEBUILDING - SM OFFICE 2 A  - STORY GROUND PSZ-AC DIFFUSER INLET AIR NODE,ZONE OFFICE WHOLEBUILDING - SM OFFICE 2 A  - STORY GROUND PSZ-AC
! <#Nodes on Supply Air Path>,<Number of Nodes>
! <Supply Air Path Node>,<Node Type>,<Node Count>,<Node Name>,<AirLoopHVAC Name>
#Nodes on Supply Air Path,2
   Supply Air Path Node,Inlet Node,1,ZONE OFFICE WHOLEBUILDING - SM OFFICE 2 A  - STORY GROUND PSZ-AC DEMAND INLET NODE,ZONE OFFICE WHOLEBUILDING - SM OFFICE 2 A  - STORY GROUND PSZ-AC
   Supply Air Path Node,Outlet Node,2,ZONE OFFICE WHOLEBUILDING - SM OFFICE 2 A  - STORY GROUND PSZ-AC DIFFUSER INLET AIR NODE,ZONE OFFICE WHOLEBUILDING - SM OFFICE 2 A  - STORY GROUND PSZ-AC
 Supply Air Path,2,ZONE OFFICE WHOLEBUILDING - SM OFFICE 2 A END_A - STORY GROUND PSZ-AC ZONE OFFICE WHOLEBUILDING - SM OFFICE 2 A END_A - STORY GROUND PSZ-AC DEMAND INLET NODE SUPPLY PATH,ZONE OFFICE WHOLEBUILDING - SM OFFICE 2 A END_A - STORY GROUND PSZ-AC
   #Components on Supply Air Path,1
   Supply Air Path Component,1,AIRLOOPHVAC:ZONESPLITTER,AIR LOOP HVAC ZONE SPLITTER 2,ZONE OFFICE WHOLEBUILDING - SM OFFICE 2 A END_A - STORY GROUND PSZ-AC
     #Outlet Nodes on Supply Air Path Component,1
     Supply Air Path Component Nodes,1,AIRLOOPHVAC:ZONESPLITTER,AIR LOOP HVAC ZONE SPLITTER 2,ZONE OFFICE WHOLEBUILDING - SM OFFICE 2 A END_A - STORY GROUND PSZ-AC DEMAND INLET NODE,ZONE OFFICE WHOLEBUILDING - SM OFFICE 2 A END_A - STORY GROUND PSZ-AC DIFFUSER INLET AIR NODE,ZONE OFFICE WHOLEBUILDING - SM OFFICE 2 A END_A - STORY GROUND PSZ-AC
! <#Nodes on Supply Air Path>,<Number of Nodes>
! <Supply Air Path Node>,<Node Type>,<Node Count>,<Node Name>,<AirLoopHVAC Name>
#Nodes on Supply Air Path,2
   Supply Air Path Node,Inlet Node,1,ZONE OFFICE WHOLEBUILDING - SM OFFICE 2 A END_A - STORY GROUND PSZ-AC DEMAND INLET NODE,ZONE OFFICE WHOLEBUILDING - SM OFFICE 2 A END_A - STORY GROUND PSZ-AC
   Supply Air Path Node,Outlet Node,2,ZONE OFFICE WHOLEBUILDING - SM OFFICE 2 A END_A - STORY GROUND PSZ-AC DIFFUSER INLET AIR NODE,ZONE OFFICE WHOLEBUILDING - SM OFFICE 2 A END_A - STORY GROUND PSZ-AC
 Supply Air Path,3,ZONE OFFICE WHOLEBUILDING - SM OFFICE 2 A END_B - STORY GROUND PSZ-AC ZONE OFFICE WHOLEBUILDING - SM OFFICE 2 A END_B - STORY GROUND PSZ-AC DEMAND INLET NODE SUPPLY PATH,ZONE OFFICE WHOLEBUILDING - SM OFFICE 2 A END_B - STORY GROUND PSZ-AC
   #Components on Supply Air Path,1
   Supply Air Path Component,1,AIRLOOPHVAC:ZONESPLITTER,AIR LOOP HVAC ZONE SPLITTER 3,ZONE OFFICE WHOLEBUILDING - SM OFFICE 2 A END_B - STORY GROUND PSZ-AC
     #Outlet Nodes on Supply Air Path Component,1
     Supply Air Path Component Nodes,1,AIRLOOPHVAC:ZONESPLITTER,AIR LOOP HVAC ZONE SPLITTER 3,ZONE OFFICE WHOLEBUILDING - SM OFFICE 2 A END_B - STORY GROUND PSZ-AC DEMAND INLET NODE,ZONE OFFICE WHOLEBUILDING - SM OFFICE 2 A END_B - STORY GROUND PSZ-AC DIFFUSER INLET AIR NODE,ZONE OFFICE WHOLEBUILDING - SM OFFICE 2 A END_B - STORY GROUND PSZ-AC
! <#Nodes on Supply Air Path>,<Number of Nodes>
! <Supply Air Path Node>,<Node Type>,<Node Count>,<Node Name>,<AirLoopHVAC Name>
#Nodes on Supply Air Path,2
   Supply Air Path Node,Inlet Node,1,ZONE OFFICE WHOLEBUILDING - SM OFFICE 2 A END_B - STORY GROUND PSZ-AC DEMAND INLET NODE,ZONE OFFICE WHOLEBUILDING - SM OFFICE 2 A END_B - STORY GROUND PSZ-AC
   Supply Air Path Node,Outlet Node,2,ZONE OFFICE WHOLEBUILDING - SM OFFICE 2 A END_B - STORY GROUND PSZ-AC DIFFUSER INLET AIR NODE,ZONE OFFICE WHOLEBUILDING - SM OFFICE 2 A END_B - STORY GROUND PSZ-AC
 Supply Air Path,4,ZONE OFFICE WHOLEBUILDING - SM OFFICE 2 B  - STORY GROUND PSZ-AC ZONE OFFICE WHOLEBUILDING - SM OFFICE 2 B  - STORY GROUND PSZ-AC DEMAND INLET NODE SUPPLY PATH,ZONE OFFICE WHOLEBUILDING - SM OFFICE 2 B  - STORY GROUND PSZ-AC
   #Components on Supply Air Path,1
   Supply Air Path Component,1,AIRLOOPHVAC:ZONESPLITTER,AIR LOOP HVAC ZONE SPLITTER 4,ZONE OFFICE WHOLEBUILDING - SM OFFICE 2 B  - STORY GROUND PSZ-AC
     #Outlet Nodes on Supply Air Path Component,1
     Supply Air Path Component Nodes,1,AIRLOOPHVAC:ZONESPLITTER,AIR LOOP HVAC ZONE SPLITTER 4,ZONE OFFICE WHOLEBUILDING - SM OFFICE 2 B  - STORY GROUND PSZ-AC DEMAND INLET NODE,ZONE OFFICE WHOLEBUILDING - SM OFFICE 2 B  - STORY GROUND PSZ-AC DIFFUSER INLET AIR NODE,ZONE OFFICE WHOLEBUILDING - SM OFFICE 2 B  - STORY GROUND PSZ-AC
! <#Nodes on Supply Air Path>,<Number of Nodes>
! <Supply Air Path Node>,<Node Type>,<Node Count>,<Node Name>,<AirLoopHVAC Name>
#Nodes on Supply Air Path,2
   Supply Air Path Node,Inlet Node,1,ZONE OFFICE WHOLEBUILDING - SM OFFICE 2 B  - STORY GROUND PSZ-AC DEMAND INLET NODE,ZONE OFFICE WHOLEBUILDING - SM OFFICE 2 B  - STORY GROUND PSZ-AC
   Supply Air Path Node,Outlet Node,2,ZONE OFFICE WHOLEBUILDING - SM OFFICE 2 B  - STORY GROUND PSZ-AC DIFFUSER INLET AIR NODE,ZONE OFFICE WHOLEBUILDING - SM OFFICE 2 B  - STORY GROUND PSZ-AC
 Supply Air Path,5,ZONE OFFICE WHOLEBUILDING - SM OFFICE 2 B END_A - STORY GROUND PSZ-AC ZONE OFFICE WHOLEBUILDING - SM OFFICE 2 B END_A - STORY GROUND PSZ-AC DEMAND INLET NODE SUPPLY PATH,ZONE OFFICE WHOLEBUILDING - SM OFFICE 2 B END_A - STORY GROUND PSZ-AC
   #Components on Supply Air Path,1
   Supply Air Path Component,1,AIRLOOPHVAC:ZONESPLITTER,AIR LOOP HVAC ZONE SPLITTER 5,ZONE OFFICE WHOLEBUILDING - SM OFFICE 2 B END_A - STORY GROUND PSZ-AC
     #Outlet Nodes on Supply Air Path Component,1
     Supply Air Path Component Nodes,1,AIRLOOPHVAC:ZONESPLITTER,AIR LOOP HVAC ZONE SPLITTER 5,ZONE OFFICE WHOLEBUILDING - SM OFFICE 2 B END_A - STORY GROUND PSZ-AC DEMAND INLET NODE,ZONE OFFICE WHOLEBUILDING - SM OFFICE 2 B END_A - STORY GROUND PSZ-AC DIFFUSER INLET AIR NODE,ZONE OFFICE WHOLEBUILDING - SM OFFICE 2 B END_A - STORY GROUND PSZ-AC
! <#Nodes on Supply Air Path>,<Number of Nodes>
! <Supply Air Path Node>,<Node Type>,<Node Count>,<Node Name>,<AirLoopHVAC Name>
#Nodes on Supply Air Path,2
   Supply Air Path Node,Inlet Node,1,ZONE OFFICE WHOLEBUILDING - SM OFFICE 2 B END_A - STORY GROUND PSZ-AC DEMAND INLET NODE,ZONE OFFICE WHOLEBUILDING - SM OFFICE 2 B END_A - STORY GROUND PSZ-AC
   Supply Air Path Node,Outlet Node,2,ZONE OFFICE WHOLEBUILDING - SM OFFICE 2 B END_A - STORY GROUND PSZ-AC DIFFUSER INLET AIR NODE,ZONE OFFICE WHOLEBUILDING - SM OFFICE 2 B END_A - STORY GROUND PSZ-AC
 Supply Air Path,6,ZONE OFFICE WHOLEBUILDING - SM OFFICE 2 B END_B - STORY GROUND PSZ-AC ZONE OFFICE WHOLEBUILDING - SM OFFICE 2 B END_B - STORY GROUND PSZ-AC DEMAND INLET NODE SUPPLY PATH,ZONE OFFICE WHOLEBUILDING - SM OFFICE 2 B END_B - STORY GROUND PSZ-AC
   #Components on Supply Air Path,1
   Supply Air Path Component,1,AIRLOOPHVAC:ZONESPLITTER,AIR LOOP HVAC ZONE SPLITTER 6,ZONE OFFICE WHOLEBUILDING - SM OFFICE 2 B END_B - STORY GROUND PSZ-AC
     #Outlet Nodes on Supply Air Path Component,1
     Supply Air Path Component Nodes,1,AIRLOOPHVAC:ZONESPLITTER,AIR LOOP HVAC ZONE SPLITTER 6,ZONE OFFICE WHOLEBUILDING - SM OFFICE 2 B END_B - STORY GROUND PSZ-AC DEMAND INLET NODE,ZONE OFFICE WHOLEBUILDING - SM OFFICE 2 B END_B - STORY GROUND PSZ-AC DIFFUSER INLET AIR NODE,ZONE OFFICE WHOLEBUILDING - SM OFFICE 2 B END_B - STORY GROUND PSZ-AC
! <#Nodes on Supply Air Path>,<Number of Nodes>
! <Supply Air Path Node>,<Node Type>,<Node Count>,<Node Name>,<AirLoopHVAC Name>
#Nodes on Supply Air Path,2
   Supply Air Path Node,Inlet Node,1,ZONE OFFICE WHOLEBUILDING - SM OFFICE 2 B END_B - STORY GROUND PSZ-AC DEMAND INLET NODE,ZONE OFFICE WHOLEBUILDING - SM OFFICE 2 B END_B - STORY GROUND PSZ-AC
   Supply Air Path Node,Outlet Node,2,ZONE OFFICE WHOLEBUILDING - SM OFFICE 2 B END_B - STORY GROUND PSZ-AC DIFFUSER INLET AIR NODE,ZONE OFFICE WHOLEBUILDING - SM OFFICE 2 B END_B - STORY GROUND PSZ-AC
 Supply Air Path,7,ZONE OFFICE WHOLEBUILDING - SM OFFICE 2 C  - STORY GROUND PSZ-AC ZONE OFFICE WHOLEBUILDING - SM OFFICE 2 C  - STORY GROUND PSZ-AC DEMAND INLET NODE SUPPLY PATH,ZONE OFFICE WHOLEBUILDING - SM OFFICE 2 C  - STORY GROUND PSZ-AC
   #Components on Supply Air Path,1
   Supply Air Path Component,1,AIRLOOPHVAC:ZONESPLITTER,AIR LOOP HVAC ZONE SPLITTER 7,ZONE OFFICE WHOLEBUILDING - SM OFFICE 2 C  - STORY GROUND PSZ-AC
     #Outlet Nodes on Supply Air Path Component,1
     Supply Air Path Component Nodes,1,AIRLOOPHVAC:ZONESPLITTER,AIR LOOP HVAC ZONE SPLITTER 7,ZONE OFFICE WHOLEBUILDING - SM OFFICE 2 C  - STORY GROUND PSZ-AC DEMAND INLET NODE,ZONE OFFICE WHOLEBUILDING - SM OFFICE 2 C  - STORY GROUND PSZ-AC DIFFUSER INLET AIR NODE,ZONE OFFICE WHOLEBUILDING - SM OFFICE 2 C  - STORY GROUND PSZ-AC
! <#Nodes on Supply Air Path>,<Number of Nodes>
! <Supply Air Path Node>,<Node Type>,<Node Count>,<Node Name>,<AirLoopHVAC Name>
#Nodes on Supply Air Path,2
   Supply Air Path Node,Inlet Node,1,ZONE OFFICE WHOLEBUILDING - SM OFFICE 2 C  - STORY GROUND PSZ-AC DEMAND INLET NODE,ZONE OFFICE WHOLEBUILDING - SM OFFICE 2 C  - STORY GROUND PSZ-AC
   Supply Air Path Node,Outlet Node,2,ZONE OFFICE WHOLEBUILDING - SM OFFICE 2 C  - STORY GROUND PSZ-AC DIFFUSER INLET AIR NODE,ZONE OFFICE WHOLEBUILDING - SM OFFICE 2 C  - STORY GROUND PSZ-AC
 Supply Air Path,8,ZONE OFFICE WHOLEBUILDING - SM OFFICE 2 C END_A - STORY GROUND PSZ-AC ZONE OFFICE WHOLEBUILDING - SM OFFICE 2 C END_A - STORY GROUND PSZ-AC DEMAND INLET NODE SUPPLY PATH,ZONE OFFICE WHOLEBUILDING - SM OFFICE 2 C END_A - STORY GROUND PSZ-AC
   #Components on Supply Air Path,1
   Supply Air Path Component,1,AIRLOOPHVAC:ZONESPLITTER,AIR LOOP HVAC ZONE SPLITTER 8,ZONE OFFICE WHOLEBUILDING - SM OFFICE 2 C END_A - STORY GROUND PSZ-AC
     #Outlet Nodes on Supply Air Path Component,1
     Supply Air Path Component Nodes,1,AIRLOOPHVAC:ZONESPLITTER,AIR LOOP HVAC ZONE SPLITTER 8,ZONE OFFICE WHOLEBUILDING - SM OFFICE 2 C END_A - STORY GROUND PSZ-AC DEMAND INLET NODE,ZONE OFFICE WHOLEBUILDING - SM OFFICE 2 C END_A - STORY GROUND PSZ-AC DIFFUSER INLET AIR NODE,ZONE OFFICE WHOLEBUILDING - SM OFFICE 2 C END_A - STORY GROUND PSZ-AC
! <#Nodes on Supply Air Path>,<Number of Nodes>
! <Supply Air Path Node>,<Node Type>,<Node Count>,<Node Name>,<AirLoopHVAC Name>
#Nodes on Supply Air Path,2
   Supply Air Path Node,Inlet Node,1,ZONE OFFICE WHOLEBUILDING - SM OFFICE 2 C END_A - STORY GROUND PSZ-AC DEMAND INLET NODE,ZONE OFFICE WHOLEBUILDING - SM OFFICE 2 C END_A - STORY GROUND PSZ-AC
   Supply Air Path Node,Outlet Node,2,ZONE OFFICE WHOLEBUILDING - SM OFFICE 2 C END_A - STORY GROUND PSZ-AC DIFFUSER INLET AIR NODE,ZONE OFFICE WHOLEBUILDING - SM OFFICE 2 C END_A - STORY GROUND PSZ-AC
 Supply Air Path,9,ZONE OFFICE WHOLEBUILDING - SM OFFICE 2 C END_B - STORY GROUND PSZ-AC ZONE OFFICE WHOLEBUILDING - SM OFFICE 2 C END_B - STORY GROUND PSZ-AC DEMAND INLET NODE SUPPLY PATH,ZONE OFFICE WHOLEBUILDING - SM OFFICE 2 C END_B - STORY GROUND PSZ-AC
   #Components on Supply Air Path,1
   Supply Air Path Component,1,AIRLOOPHVAC:ZONESPLITTER,AIR LOOP HVAC ZONE SPLITTER 9,ZONE OFFICE WHOLEBUILDING - SM OFFICE 2 C END_B - STORY GROUND PSZ-AC
     #Outlet Nodes on Supply Air Path Component,1
     Supply Air Path Component Nodes,1,AIRLOOPHVAC:ZONESPLITTER,AIR LOOP HVAC ZONE SPLITTER 9,ZONE OFFICE WHOLEBUILDING - SM OFFICE 2 C END_B - STORY GROUND PSZ-AC DEMAND INLET NODE,ZONE OFFICE WHOLEBUILDING - SM OFFICE 2 C END_B - STORY GROUND PSZ-AC DIFFUSER INLET AIR NODE,ZONE OFFICE WHOLEBUILDING - SM OFFICE 2 C END_B - STORY GROUND PSZ-AC
! <#Nodes on Supply Air Path>,<Number of Nodes>
! <Supply Air Path Node>,<Node Type>,<Node Count>,<Node Name>,<AirLoopHVAC Name>
#Nodes on Supply Air Path,2
   Supply Air Path Node,Inlet Node,1,ZONE OFFICE WHOLEBUILDING - SM OFFICE 2 C END_B - STORY GROUND PSZ-AC DEMAND INLET NODE,ZONE OFFICE WHOLEBUILDING - SM OFFICE 2 C END_B - STORY GROUND PSZ-AC
   Supply Air Path Node,Outlet Node,2,ZONE OFFICE WHOLEBUILDING - SM OFFICE 2 C END_B - STORY GROUND PSZ-AC DIFFUSER INLET AIR NODE,ZONE OFFICE WHOLEBUILDING - SM OFFICE 2 C END_B - STORY GROUND PSZ-AC
! ===============================================================
! <#Return Air Paths>,<Number of Return Air Paths>
 #Return Air Paths,9
! <Return Air Path>,<Return Air Path Count>,<Return Air Path Name>,<AirLoopHVAC Name>
! <#Components on Return Air Path>,<Number of Components>
! <Return Air Path Component>,<Component Count>,<Component Type>,<Component Name>,<AirLoopHVAC Name>
! <#Inlet Nodes on Return Air Path Component>,<Number of Nodes>
! <Return Air Path Component Nodes>,<Node Count>,<Component Type>,<Component Name>,<Inlet Node Name>,<Outlet Node Name>,<AirLoopHVAC Name>
 Return Air Path,1,ZONE OFFICE WHOLEBUILDING - SM OFFICE 2 A  - STORY GROUND PSZ-AC RETURN PATH,ZONE OFFICE WHOLEBUILDING - SM OFFICE 2 A  - STORY GROUND PSZ-AC
   #Components on Return Air Path,1
   Return Air Path Component,1,AIRLOOPHVAC:ZONEMIXER,AIR LOOP HVAC ZONE MIXER 1,ZONE OFFICE WHOLEBUILDING - SM OFFICE 2 A  - STORY GROUND PSZ-AC
     #Inlet Nodes on Return Air Path Component,1
     Return Air Path Component Nodes,1,AIRLOOPHVAC:ZONEMIXER,AIR LOOP HVAC ZONE MIXER 1,ZONE OFFICE WHOLEBUILDING - SM OFFICE 2 A  - STORY GROUND RETURN AIR NODE,ZONE OFFICE WHOLEBUILDING - SM OFFICE 2 A  - STORY GROUND PSZ-AC DEMAND OUTLET NODE,ZONE OFFICE WHOLEBUILDING - SM OFFICE 2 A  - STORY GROUND PSZ-AC
! <#Nodes on Return Air Path>,<Number of Nodes>
! <Return Air Path Node>,<Node Type>,<Node Count>,<Node Name>,<AirLoopHVAC Name>
   #Nodes on Return Air Path,2
   Return Air Path Node,Outlet Node,1,ZONE OFFICE WHOLEBUILDING - SM OFFICE 2 A  - STORY GROUND PSZ-AC DEMAND OUTLET NODE,ZONE OFFICE WHOLEBUILDING - SM OFFICE 2 A  - STORY GROUND PSZ-AC
   Return Air Path Node,Inlet Node,2,ZONE OFFICE WHOLEBUILDING - SM OFFICE 2 A  - STORY GROUND RETURN AIR NODE,ZONE OFFICE WHOLEBUILDING - SM OFFICE 2 A  - STORY GROUND PSZ-AC
 Return Air Path,2,ZONE OFFICE WHOLEBUILDING - SM OFFICE 2 A END_A - STORY GROUND PSZ-AC RETURN PATH,ZONE OFFICE WHOLEBUILDING - SM OFFICE 2 A END_A - STORY GROUND PSZ-AC
   #Components on Return Air Path,1
   Return Air Path Component,1,AIRLOOPHVAC:ZONEMIXER,AIR LOOP HVAC ZONE MIXER 2,ZONE OFFICE WHOLEBUILDING - SM OFFICE 2 A END_A - STORY GROUND PSZ-AC
     #Inlet Nodes on Return Air Path Component,1
     Return Air Path Component Nodes,1,AIRLOOPHVAC:ZONEMIXER,AIR LOOP HVAC ZONE MIXER 2,ZONE OFFICE WHOLEBUILDING - SM OFFICE 2 A END_A - STORY GROUND RETURN AIR NODE,ZONE OFFICE WHOLEBUILDING - SM OFFICE 2 A END_A - STORY GROUND PSZ-AC DEMAND OUTLET NODE,ZONE OFFICE WHOLEBUILDING - SM OFFICE 2 A END_A - STORY GROUND PSZ-AC
! <#Nodes on Return Air Path>,<Number of Nodes>
! <Return Air Path Node>,<Node Type>,<Node Count>,<Node Name>,<AirLoopHVAC Name>
   #Nodes on Return Air Path,2
   Return Air Path Node,Outlet Node,1,ZONE OFFICE WHOLEBUILDING - SM OFFICE 2 A END_A - STORY GROUND PSZ-AC DEMAND OUTLET NODE,ZONE OFFICE WHOLEBUILDING - SM OFFICE 2 A END_A - STORY GROUND PSZ-AC
   Return Air Path Node,Inlet Node,2,ZONE OFFICE WHOLEBUILDING - SM OFFICE 2 A END_A - STORY GROUND RETURN AIR NODE,ZONE OFFICE WHOLEBUILDING - SM OFFICE 2 A END_A - STORY GROUND PSZ-AC
 Return Air Path,3,ZONE OFFICE WHOLEBUILDING - SM OFFICE 2 A END_B - STORY GROUND PSZ-AC RETURN PATH,ZONE OFFICE WHOLEBUILDING - SM OFFICE 2 A END_B - STORY GROUND PSZ-AC
   #Components on Return Air Path,1
   Return Air Path Component,1,AIRLOOPHVAC:ZONEMIXER,AIR LOOP HVAC ZONE MIXER 3,ZONE OFFICE WHOLEBUILDING - SM OFFICE 2 A END_B - STORY GROUND PSZ-AC
     #Inlet Nodes on Return Air Path Component,1
     Return Air Path Component Nodes,1,AIRLOOPHVAC:ZONEMIXER,AIR LOOP HVAC ZONE MIXER 3,ZONE OFFICE WHOLEBUILDING - SM OFFICE 2 A END_B - STORY GROUND RETURN AIR NODE,ZONE OFFICE WHOLEBUILDING - SM OFFICE 2 A END_B - STORY GROUND PSZ-AC DEMAND OUTLET NODE,ZONE OFFICE WHOLEBUILDING - SM OFFICE 2 A END_B - STORY GROUND PSZ-AC
! <#Nodes on Return Air Path>,<Number of Nodes>
! <Return Air Path Node>,<Node Type>,<Node Count>,<Node Name>,<AirLoopHVAC Name>
   #Nodes on Return Air Path,2
   Return Air Path Node,Outlet Node,1,ZONE OFFICE WHOLEBUILDING - SM OFFICE 2 A END_B - STORY GROUND PSZ-AC DEMAND OUTLET NODE,ZONE OFFICE WHOLEBUILDING - SM OFFICE 2 A END_B - STORY GROUND PSZ-AC
   Return Air Path Node,Inlet Node,2,ZONE OFFICE WHOLEBUILDING - SM OFFICE 2 A END_B - STORY GROUND RETURN AIR NODE,ZONE OFFICE WHOLEBUILDING - SM OFFICE 2 A END_B - STORY GROUND PSZ-AC
 Return Air Path,4,ZONE OFFICE WHOLEBUILDING - SM OFFICE 2 B  - STORY GROUND PSZ-AC RETURN PATH,ZONE OFFICE WHOLEBUILDING - SM OFFICE 2 B  - STORY GROUND PSZ-AC
   #Components on Return Air Path,1
   Return Air Path Component,1,AIRLOOPHVAC:ZONEMIXER,AIR LOOP HVAC ZONE MIXER 4,ZONE OFFICE WHOLEBUILDING - SM OFFICE 2 B  - STORY GROUND PSZ-AC
     #Inlet Nodes on Return Air Path Component,1
     Return Air Path Component Nodes,1,AIRLOOPHVAC:ZONEMIXER,AIR LOOP HVAC ZONE MIXER 4,ZONE OFFICE WHOLEBUILDING - SM OFFICE 2 B  - STORY GROUND RETURN AIR NODE,ZONE OFFICE WHOLEBUILDING - SM OFFICE 2 B  - STORY GROUND PSZ-AC DEMAND OUTLET NODE,ZONE OFFICE WHOLEBUILDING - SM OFFICE 2 B  - STORY GROUND PSZ-AC
! <#Nodes on Return Air Path>,<Number of Nodes>
! <Return Air Path Node>,<Node Type>,<Node Count>,<Node Name>,<AirLoopHVAC Name>
   #Nodes on Return Air Path,2
   Return Air Path Node,Outlet Node,1,ZONE OFFICE WHOLEBUILDING - SM OFFICE 2 B  - STORY GROUND PSZ-AC DEMAND OUTLET NODE,ZONE OFFICE WHOLEBUILDING - SM OFFICE 2 B  - STORY GROUND PSZ-AC
   Return Air Path Node,Inlet Node,2,ZONE OFFICE WHOLEBUILDING - SM OFFICE 2 B  - STORY GROUND RETURN AIR NODE,ZONE OFFICE WHOLEBUILDING - SM OFFICE 2 B  - STORY GROUND PSZ-AC
 Return Air Path,5,ZONE OFFICE WHOLEBUILDING - SM OFFICE 2 B END_A - STORY GROUND PSZ-AC RETURN PATH,ZONE OFFICE WHOLEBUILDING - SM OFFICE 2 B END_A - STORY GROUND PSZ-AC
   #Components on Return Air Path,1
   Return Air Path Component,1,AIRLOOPHVAC:ZONEMIXER,AIR LOOP HVAC ZONE MIXER 5,ZONE OFFICE WHOLEBUILDING - SM OFFICE 2 B END_A - STORY GROUND PSZ-AC
     #Inlet Nodes on Return Air Path Component,1
     Return Air Path Component Nodes,1,AIRLOOPHVAC:ZONEMIXER,AIR LOOP HVAC ZONE MIXER 5,ZONE OFFICE WHOLEBUILDING - SM OFFICE 2 B END_A - STORY GROUND RETURN AIR NODE,ZONE OFFICE WHOLEBUILDING - SM OFFICE 2 B END_A - STORY GROUND PSZ-AC DEMAND OUTLET NODE,ZONE OFFICE WHOLEBUILDING - SM OFFICE 2 B END_A - STORY GROUND PSZ-AC
! <#Nodes on Return Air Path>,<Number of Nodes>
! <Return Air Path Node>,<Node Type>,<Node Count>,<Node Name>,<AirLoopHVAC Name>
   #Nodes on Return Air Path,2
   Return Air Path Node,Outlet Node,1,ZONE OFFICE WHOLEBUILDING - SM OFFICE 2 B END_A - STORY GROUND PSZ-AC DEMAND OUTLET NODE,ZONE OFFICE WHOLEBUILDING - SM OFFICE 2 B END_A - STORY GROUND PSZ-AC
   Return Air Path Node,Inlet Node,2,ZONE OFFICE WHOLEBUILDING - SM OFFICE 2 B END_A - STORY GROUND RETURN AIR NODE,ZONE OFFICE WHOLEBUILDING - SM OFFICE 2 B END_A - STORY GROUND PSZ-AC
 Return Air Path,6,ZONE OFFICE WHOLEBUILDING - SM OFFICE 2 B END_B - STORY GROUND PSZ-AC RETURN PATH,ZONE OFFICE WHOLEBUILDING - SM OFFICE 2 B END_B - STORY GROUND PSZ-AC
   #Components on Return Air Path,1
   Return Air Path Component,1,AIRLOOPHVAC:ZONEMIXER,AIR LOOP HVAC ZONE MIXER 6,ZONE OFFICE WHOLEBUILDING - SM OFFICE 2 B END_B - STORY GROUND PSZ-AC
     #Inlet Nodes on Return Air Path Component,1
     Return Air Path Component Nodes,1,AIRLOOPHVAC:ZONEMIXER,AIR LOOP HVAC ZONE MIXER 6,ZONE OFFICE WHOLEBUILDING - SM OFFICE 2 B END_B - STORY GROUND RETURN AIR NODE,ZONE OFFICE WHOLEBUILDING - SM OFFICE 2 B END_B - STORY GROUND PSZ-AC DEMAND OUTLET NODE,ZONE OFFICE WHOLEBUILDING - SM OFFICE 2 B END_B - STORY GROUND PSZ-AC
! <#Nodes on Return Air Path>,<Number of Nodes>
! <Return Air Path Node>,<Node Type>,<Node Count>,<Node Name>,<AirLoopHVAC Name>
   #Nodes on Return Air Path,2
   Return Air Path Node,Outlet Node,1,ZONE OFFICE WHOLEBUILDING - SM OFFICE 2 B END_B - STORY GROUND PSZ-AC DEMAND OUTLET NODE,ZONE OFFICE WHOLEBUILDING - SM OFFICE 2 B END_B - STORY GROUND PSZ-AC
   Return Air Path Node,Inlet Node,2,ZONE OFFICE WHOLEBUILDING - SM OFFICE 2 B END_B - STORY GROUND RETURN AIR NODE,ZONE OFFICE WHOLEBUILDING - SM OFFICE 2 B END_B - STORY GROUND PSZ-AC
 Return Air Path,7,ZONE OFFICE WHOLEBUILDING - SM OFFICE 2 C  - STORY GROUND PSZ-AC RETURN PATH,ZONE OFFICE WHOLEBUILDING - SM OFFICE 2 C  - STORY GROUND PSZ-AC
   #Components on Return Air Path,1
   Return Air Path Component,1,AIRLOOPHVAC:ZONEMIXER,AIR LOOP HVAC ZONE MIXER 7,ZONE OFFICE WHOLEBUILDING - SM OFFICE 2 C  - STORY GROUND PSZ-AC
     #Inlet Nodes on Return Air Path Component,1
     Return Air Path Component Nodes,1,AIRLOOPHVAC:ZONEMIXER,AIR LOOP HVAC ZONE MIXER 7,ZONE OFFICE WHOLEBUILDING - SM OFFICE 2 C  - STORY GROUND RETURN AIR NODE,ZONE OFFICE WHOLEBUILDING - SM OFFICE 2 C  - STORY GROUND PSZ-AC DEMAND OUTLET NODE,ZONE OFFICE WHOLEBUILDING - SM OFFICE 2 C  - STORY GROUND PSZ-AC
! <#Nodes on Return Air Path>,<Number of Nodes>
! <Return Air Path Node>,<Node Type>,<Node Count>,<Node Name>,<AirLoopHVAC Name>
   #Nodes on Return Air Path,2
   Return Air Path Node,Outlet Node,1,ZONE OFFICE WHOLEBUILDING - SM OFFICE 2 C  - STORY GROUND PSZ-AC DEMAND OUTLET NODE,ZONE OFFICE WHOLEBUILDING - SM OFFICE 2 C  - STORY GROUND PSZ-AC
   Return Air Path Node,Inlet Node,2,ZONE OFFICE WHOLEBUILDING - SM OFFICE 2 C  - STORY GROUND RETURN AIR NODE,ZONE OFFICE WHOLEBUILDING - SM OFFICE 2 C  - STORY GROUND PSZ-AC
 Return Air Path,8,ZONE OFFICE WHOLEBUILDING - SM OFFICE 2 C END_A - STORY GROUND PSZ-AC RETURN PATH,ZONE OFFICE WHOLEBUILDING - SM OFFICE 2 C END_A - STORY GROUND PSZ-AC
   #Components on Return Air Path,1
   Return Air Path Component,1,AIRLOOPHVAC:ZONEMIXER,AIR LOOP HVAC ZONE MIXER 8,ZONE OFFICE WHOLEBUILDING - SM OFFICE 2 C END_A - STORY GROUND PSZ-AC
     #Inlet Nodes on Return Air Path Component,1
     Return Air Path Component Nodes,1,AIRLOOPHVAC:ZONEMIXER,AIR LOOP HVAC ZONE MIXER 8,ZONE OFFICE WHOLEBUILDING - SM OFFICE 2 C END_A - STORY GROUND RETURN AIR NODE,ZONE OFFICE WHOLEBUILDING - SM OFFICE 2 C END_A - STORY GROUND PSZ-AC DEMAND OUTLET NODE,ZONE OFFICE WHOLEBUILDING - SM OFFICE 2 C END_A - STORY GROUND PSZ-AC
! <#Nodes on Return Air Path>,<Number of Nodes>
! <Return Air Path Node>,<Node Type>,<Node Count>,<Node Name>,<AirLoopHVAC Name>
   #Nodes on Return Air Path,2
   Return Air Path Node,Outlet Node,1,ZONE OFFICE WHOLEBUILDING - SM OFFICE 2 C END_A - STORY GROUND PSZ-AC DEMAND OUTLET NODE,ZONE OFFICE WHOLEBUILDING - SM OFFICE 2 C END_A - STORY GROUND PSZ-AC
   Return Air Path Node,Inlet Node,2,ZONE OFFICE WHOLEBUILDING - SM OFFICE 2 C END_A - STORY GROUND RETURN AIR NODE,ZONE OFFICE WHOLEBUILDING - SM OFFICE 2 C END_A - STORY GROUND PSZ-AC
 Return Air Path,9,ZONE OFFICE WHOLEBUILDING - SM OFFICE 2 C END_B - STORY GROUND PSZ-AC RETURN PATH,ZONE OFFICE WHOLEBUILDING - SM OFFICE 2 C END_B - STORY GROUND PSZ-AC
   #Components on Return Air Path,1
   Return Air Path Component,1,AIRLOOPHVAC:ZONEMIXER,AIR LOOP HVAC ZONE MIXER 9,ZONE OFFICE WHOLEBUILDING - SM OFFICE 2 C END_B - STORY GROUND PSZ-AC
     #Inlet Nodes on Return Air Path Component,1
     Return Air Path Component Nodes,1,AIRLOOPHVAC:ZONEMIXER,AIR LOOP HVAC ZONE MIXER 9,ZONE OFFICE WHOLEBUILDING - SM OFFICE 2 C END_B - STORY GROUND RETURN AIR NODE,ZONE OFFICE WHOLEBUILDING - SM OFFICE 2 C END_B - STORY GROUND PSZ-AC DEMAND OUTLET NODE,ZONE OFFICE WHOLEBUILDING - SM OFFICE 2 C END_B - STORY GROUND PSZ-AC
! <#Nodes on Return Air Path>,<Number of Nodes>
! <Return Air Path Node>,<Node Type>,<Node Count>,<Node Name>,<AirLoopHVAC Name>
   #Nodes on Return Air Path,2
   Return Air Path Node,Outlet Node,1,ZONE OFFICE WHOLEBUILDING - SM OFFICE 2 C END_B - STORY GROUND PSZ-AC DEMAND OUTLET NODE,ZONE OFFICE WHOLEBUILDING - SM OFFICE 2 C END_B - STORY GROUND PSZ-AC
   Return Air Path Node,Inlet Node,2,ZONE OFFICE WHOLEBUILDING - SM OFFICE 2 C END_B - STORY GROUND RETURN AIR NODE,ZONE OFFICE WHOLEBUILDING - SM OFFICE 2 C END_B - STORY GROUND PSZ-AC
! ===============================================================
! #Outdoor Air Nodes,<Number of Outdoor Air Nodes>
 #Outdoor Air Nodes,10
! <Outdoor Air Node>,<NodeNumber>,<Node Name>
 Outdoor Air Node,107,ZONE OFFICE WHOLEBUILDING - SM OFFICE 2 A  - STORY GROUND PSZ-AC OUTDOOR AIR NODE
 Outdoor Air Node,108,ZONE OFFICE WHOLEBUILDING - SM OFFICE 2 A END_A - STORY GROUND PSZ-AC OUTDOOR AIR NODE
 Outdoor Air Node,109,ZONE OFFICE WHOLEBUILDING - SM OFFICE 2 A END_B - STORY GROUND PSZ-AC OUTDOOR AIR NODE
 Outdoor Air Node,110,ZONE OFFICE WHOLEBUILDING - SM OFFICE 2 B  - STORY GROUND PSZ-AC OUTDOOR AIR NODE
 Outdoor Air Node,111,ZONE OFFICE WHOLEBUILDING - SM OFFICE 2 B END_A - STORY GROUND PSZ-AC OUTDOOR AIR NODE
 Outdoor Air Node,112,ZONE OFFICE WHOLEBUILDING - SM OFFICE 2 B END_B - STORY GROUND PSZ-AC OUTDOOR AIR NODE
 Outdoor Air Node,113,ZONE OFFICE WHOLEBUILDING - SM OFFICE 2 C  - STORY GROUND PSZ-AC OUTDOOR AIR NODE
 Outdoor Air Node,114,ZONE OFFICE WHOLEBUILDING - SM OFFICE 2 C END_A - STORY GROUND PSZ-AC OUTDOOR AIR NODE
 Outdoor Air Node,115,ZONE OFFICE WHOLEBUILDING - SM OFFICE 2 C END_B - STORY GROUND PSZ-AC OUTDOOR AIR NODE
 Outdoor Air Node,116,MODEL OUTDOOR AIR NODE
! ===============================================================
! <#Component Sets>,<Number of Component Sets>
 #Component Sets,89
! <Component Set>,<Component Set Count>,<Parent Object Type>,<Parent Object Name>,<Component Type>,<Component Name>,<Inlet Node ID>,<Outlet Node ID>,<Description>
 Component Set,1,BRANCH,ZONE OFFICE WHOLEBUILDING - SM OFFICE 2 A  - STORY GROUND PSZ-AC MAIN BRANCH,AIRLOOPHVAC:OUTDOORAIRSYSTEM,ZONE OFFICE WHOLEBUILDING - SM OFFICE 2 A  - STORY GROUND PSZ-AC OA SYSTEM,ZONE OFFICE WHOLEBUILDING - SM OFFICE 2 A  - STORY GROUND PSZ-AC SUPPLY INLET NODE,ZONE OFFICE WHOLEBUILDING - SM OFFICE 2 A  - STORY GROUND PSZ-AC MIXED AIR NODE,Air Nodes
 Component Set,2,BRANCH,ZONE OFFICE WHOLEBUILDING - SM OFFICE 2 A  - STORY GROUND PSZ-AC MAIN BRANCH,AIRLOOPHVAC:UNITARYSYSTEM,ZONE OFFICE WHOLEBUILDING - SM OFFICE 2 A  - STORY GROUND PSZ-AC UNITARY AC,ZONE OFFICE WHOLEBUILDING - SM OFFICE 2 A  - STORY GROUND PSZ-AC MIXED AIR NODE,ZONE OFFICE WHOLEBUILDING - SM OFFICE 2 A  - STORY GROUND PSZ-AC SUPPLY OUTLET NODE,Air Nodes
 Component Set,3,BRANCH,ZONE OFFICE WHOLEBUILDING - SM OFFICE 2 A END_A - STORY GROUND PSZ-AC MAIN BRANCH,AIRLOOPHVAC:OUTDOORAIRSYSTEM,ZONE OFFICE WHOLEBUILDING - SM OFFICE 2 A END_A - STORY GROUND PSZ-AC OA SYSTEM,ZONE OFFICE WHOLEBUILDING - SM OFFICE 2 A END_A - STORY GROUND PSZ-AC SUPPLY INLET NODE,ZONE OFFICE WHOLEBUILDING - SM OFFICE 2 A END_A - STORY GROUND PSZ-AC MIXED AIR NODE,Air Nodes
 Component Set,4,BRANCH,ZONE OFFICE WHOLEBUILDING - SM OFFICE 2 A END_A - STORY GROUND PSZ-AC MAIN BRANCH,AIRLOOPHVAC:UNITARYSYSTEM,ZONE OFFICE WHOLEBUILDING - SM OFFICE 2 A END_A - STORY GROUND PSZ-AC UNITARY AC,ZONE OFFICE WHOLEBUILDING - SM OFFICE 2 A END_A - STORY GROUND PSZ-AC MIXED AIR NODE,ZONE OFFICE WHOLEBUILDING - SM OFFICE 2 A END_A - STORY GROUND PSZ-AC SUPPLY OUTLET NODE,Air Nodes
 Component Set,5,BRANCH,ZONE OFFICE WHOLEBUILDING - SM OFFICE 2 A END_B - STORY GROUND PSZ-AC MAIN BRANCH,AIRLOOPHVAC:OUTDOORAIRSYSTEM,ZONE OFFICE WHOLEBUILDING - SM OFFICE 2 A END_B - STORY GROUND PSZ-AC OA SYSTEM,ZONE OFFICE WHOLEBUILDING - SM OFFICE 2 A END_B - STORY GROUND PSZ-AC SUPPLY INLET NODE,ZONE OFFICE WHOLEBUILDING - SM OFFICE 2 A END_B - STORY GROUND PSZ-AC MIXED AIR NODE,Air Nodes
 Component Set,6,BRANCH,ZONE OFFICE WHOLEBUILDING - SM OFFICE 2 A END_B - STORY GROUND PSZ-AC MAIN BRANCH,AIRLOOPHVAC:UNITARYSYSTEM,ZONE OFFICE WHOLEBUILDING - SM OFFICE 2 A END_B - STORY GROUND PSZ-AC UNITARY AC,ZONE OFFICE WHOLEBUILDING - SM OFFICE 2 A END_B - STORY GROUND PSZ-AC MIXED AIR NODE,ZONE OFFICE WHOLEBUILDING - SM OFFICE 2 A END_B - STORY GROUND PSZ-AC SUPPLY OUTLET NODE,Air Nodes
 Component Set,7,BRANCH,ZONE OFFICE WHOLEBUILDING - SM OFFICE 2 B  - STORY GROUND PSZ-AC MAIN BRANCH,AIRLOOPHVAC:OUTDOORAIRSYSTEM,ZONE OFFICE WHOLEBUILDING - SM OFFICE 2 B  - STORY GROUND PSZ-AC OA SYSTEM,ZONE OFFICE WHOLEBUILDING - SM OFFICE 2 B  - STORY GROUND PSZ-AC SUPPLY INLET NODE,ZONE OFFICE WHOLEBUILDING - SM OFFICE 2 B  - STORY GROUND PSZ-AC MIXED AIR NODE,Air Nodes
 Component Set,8,BRANCH,ZONE OFFICE WHOLEBUILDING - SM OFFICE 2 B  - STORY GROUND PSZ-AC MAIN BRANCH,AIRLOOPHVAC:UNITARYSYSTEM,ZONE OFFICE WHOLEBUILDING - SM OFFICE 2 B  - STORY GROUND PSZ-AC UNITARY AC,ZONE OFFICE WHOLEBUILDING - SM OFFICE 2 B  - STORY GROUND PSZ-AC MIXED AIR NODE,ZONE OFFICE WHOLEBUILDING - SM OFFICE 2 B  - STORY GROUND PSZ-AC SUPPLY OUTLET NODE,Air Nodes
 Component Set,9,BRANCH,ZONE OFFICE WHOLEBUILDING - SM OFFICE 2 B END_A - STORY GROUND PSZ-AC MAIN BRANCH,AIRLOOPHVAC:OUTDOORAIRSYSTEM,ZONE OFFICE WHOLEBUILDING - SM OFFICE 2 B END_A - STORY GROUND PSZ-AC OA SYSTEM,ZONE OFFICE WHOLEBUILDING - SM OFFICE 2 B END_A - STORY GROUND PSZ-AC SUPPLY INLET NODE,ZONE OFFICE WHOLEBUILDING - SM OFFICE 2 B END_A - STORY GROUND PSZ-AC MIXED AIR NODE,Air Nodes
 Component Set,10,BRANCH,ZONE OFFICE WHOLEBUILDING - SM OFFICE 2 B END_A - STORY GROUND PSZ-AC MAIN BRANCH,AIRLOOPHVAC:UNITARYSYSTEM,ZONE OFFICE WHOLEBUILDING - SM OFFICE 2 B END_A - STORY GROUND PSZ-AC UNITARY AC,ZONE OFFICE WHOLEBUILDING - SM OFFICE 2 B END_A - STORY GROUND PSZ-AC MIXED AIR NODE,ZONE OFFICE WHOLEBUILDING - SM OFFICE 2 B END_A - STORY GROUND PSZ-AC SUPPLY OUTLET NODE,Air Nodes
 Component Set,11,BRANCH,ZONE OFFICE WHOLEBUILDING - SM OFFICE 2 B END_B - STORY GROUND PSZ-AC MAIN BRANCH,AIRLOOPHVAC:OUTDOORAIRSYSTEM,ZONE OFFICE WHOLEBUILDING - SM OFFICE 2 B END_B - STORY GROUND PSZ-AC OA SYSTEM,ZONE OFFICE WHOLEBUILDING - SM OFFICE 2 B END_B - STORY GROUND PSZ-AC SUPPLY INLET NODE,ZONE OFFICE WHOLEBUILDING - SM OFFICE 2 B END_B - STORY GROUND PSZ-AC MIXED AIR NODE,Air Nodes
 Component Set,12,BRANCH,ZONE OFFICE WHOLEBUILDING - SM OFFICE 2 B END_B - STORY GROUND PSZ-AC MAIN BRANCH,AIRLOOPHVAC:UNITARYSYSTEM,ZONE OFFICE WHOLEBUILDING - SM OFFICE 2 B END_B - STORY GROUND PSZ-AC UNITARY AC,ZONE OFFICE WHOLEBUILDING - SM OFFICE 2 B END_B - STORY GROUND PSZ-AC MIXED AIR NODE,ZONE OFFICE WHOLEBUILDING - SM OFFICE 2 B END_B - STORY GROUND PSZ-AC SUPPLY OUTLET NODE,Air Nodes
 Component Set,13,BRANCH,ZONE OFFICE WHOLEBUILDING - SM OFFICE 2 C  - STORY GROUND PSZ-AC MAIN BRANCH,AIRLOOPHVAC:OUTDOORAIRSYSTEM,ZONE OFFICE WHOLEBUILDING - SM OFFICE 2 C  - STORY GROUND PSZ-AC OA SYSTEM,ZONE OFFICE WHOLEBUILDING - SM OFFICE 2 C  - STORY GROUND PSZ-AC SUPPLY INLET NODE,ZONE OFFICE WHOLEBUILDING - SM OFFICE 2 C  - STORY GROUND PSZ-AC MIXED AIR NODE,Air Nodes
 Component Set,14,BRANCH,ZONE OFFICE WHOLEBUILDING - SM OFFICE 2 C  - STORY GROUND PSZ-AC MAIN BRANCH,AIRLOOPHVAC:UNITARYSYSTEM,ZONE OFFICE WHOLEBUILDING - SM OFFICE 2 C  - STORY GROUND PSZ-AC UNITARY AC,ZONE OFFICE WHOLEBUILDING - SM OFFICE 2 C  - STORY GROUND PSZ-AC MIXED AIR NODE,ZONE OFFICE WHOLEBUILDING - SM OFFICE 2 C  - STORY GROUND PSZ-AC SUPPLY OUTLET NODE,Air Nodes
 Component Set,15,BRANCH,ZONE OFFICE WHOLEBUILDING - SM OFFICE 2 C END_A - STORY GROUND PSZ-AC MAIN BRANCH,AIRLOOPHVAC:OUTDOORAIRSYSTEM,ZONE OFFICE WHOLEBUILDING - SM OFFICE 2 C END_A - STORY GROUND PSZ-AC OA SYSTEM,ZONE OFFICE WHOLEBUILDING - SM OFFICE 2 C END_A - STORY GROUND PSZ-AC SUPPLY INLET NODE,ZONE OFFICE WHOLEBUILDING - SM OFFICE 2 C END_A - STORY GROUND PSZ-AC MIXED AIR NODE,Air Nodes
 Component Set,16,BRANCH,ZONE OFFICE WHOLEBUILDING - SM OFFICE 2 C END_A - STORY GROUND PSZ-AC MAIN BRANCH,AIRLOOPHVAC:UNITARYSYSTEM,ZONE OFFICE WHOLEBUILDING - SM OFFICE 2 C END_A - STORY GROUND PSZ-AC UNITARY AC,ZONE OFFICE WHOLEBUILDING - SM OFFICE 2 C END_A - STORY GROUND PSZ-AC MIXED AIR NODE,ZONE OFFICE WHOLEBUILDING - SM OFFICE 2 C END_A - STORY GROUND PSZ-AC SUPPLY OUTLET NODE,Air Nodes
 Component Set,17,BRANCH,ZONE OFFICE WHOLEBUILDING - SM OFFICE 2 C END_B - STORY GROUND PSZ-AC MAIN BRANCH,AIRLOOPHVAC:OUTDOORAIRSYSTEM,ZONE OFFICE WHOLEBUILDING - SM OFFICE 2 C END_B - STORY GROUND PSZ-AC OA SYSTEM,ZONE OFFICE WHOLEBUILDING - SM OFFICE 2 C END_B - STORY GROUND PSZ-AC SUPPLY INLET NODE,ZONE OFFICE WHOLEBUILDING - SM OFFICE 2 C END_B - STORY GROUND PSZ-AC MIXED AIR NODE,Air Nodes
 Component Set,18,BRANCH,ZONE OFFICE WHOLEBUILDING - SM OFFICE 2 C END_B - STORY GROUND PSZ-AC MAIN BRANCH,AIRLOOPHVAC:UNITARYSYSTEM,ZONE OFFICE WHOLEBUILDING - SM OFFICE 2 C END_B - STORY GROUND PSZ-AC UNITARY AC,ZONE OFFICE WHOLEBUILDING - SM OFFICE 2 C END_B - STORY GROUND PSZ-AC MIXED AIR NODE,ZONE OFFICE WHOLEBUILDING - SM OFFICE 2 C END_B - STORY GROUND PSZ-AC SUPPLY OUTLET NODE,Air Nodes
 Component Set,19,BRANCH,MAIN SERVICE WATER LOOP SUPPLY INLET BRANCH,PUMP:VARIABLESPEED,MAIN SERVICE WATER LOOP WATER MAINS PRESSURE DRIVEN,MAIN SERVICE WATER LOOP SUPPLY INLET NODE,MAIN SERVICE WATER LOOP WATER MAINS PRESSURE DRIVEN OUTLET WATER NODE,Water Nodes
 Component Set,20,BRANCH,MAIN SERVICE WATER LOOP SUPPLY BRANCH 1,WATERHEATER:MIXED,40GAL ELECTRICITY WATER HEATER - 40KBTU/HR 1.0 THERM EFF 1.0 THERM EFF,40GAL ELECTRICITY WATER HEATER - 40KBTU/HR 1.0 THERM EFF SUPPLY INLET WATER NODE,40GAL ELECTRICITY WATER HEATER - 40KBTU/HR 1.0 THERM EFF SUPPLY OUTLET WATER NODE,Use Side Water Nodes
 Component Set,21,BRANCH,MAIN SERVICE WATER LOOP SUPPLY BRANCH 2,PIPE:ADIABATIC,PIPE ADIABATIC 1,PIPE ADIABATIC 1 INLET WATER NODE,PIPE ADIABATIC 1 OUTLET WATER NODE,Pipe Nodes
 Component Set,22,BRANCH,MAIN SERVICE WATER LOOP SUPPLY OUTLET BRANCH,PIPE:ADIABATIC,PIPE ADIABATIC 3,PIPE ADIABATIC 3 INLET WATER NODE,MAIN SERVICE WATER LOOP SUPPLY OUTLET NODE,Pipe Nodes
 Component Set,23,BRANCH,MAIN SERVICE WATER LOOP DEMAND INLET BRANCH,PIPE:ADIABATIC,MAIN SERVICE WATER LOOP DEMAND INLET PIPE,MAIN SERVICE WATER LOOP DEMAND INLET NODE,MAIN SERVICE WATER LOOP DEMAND INLET PIPE NODE,Pipe Nodes
 Component Set,24,BRANCH,MAIN SERVICE WATER LOOP DEMAND BRANCH 1,PIPE:ADIABATIC,PIPE ADIABATIC 2,PIPE ADIABATIC 2 INLET WATER NODE,PIPE ADIABATIC 2 OUTLET WATER NODE,Pipe Nodes
 Component Set,25,BRANCH,MAIN SERVICE WATER LOOP DEMAND BYPASS BRANCH,PIPE:ADIABATIC,MAIN SERVICE WATER LOOP DEMAND BYPASS PIPE,MAIN SERVICE WATER LOOP DEMAND BYPASS PIPE INLET NODE,MAIN SERVICE WATER LOOP DEMAND BYPASS PIPE OUTLET NODE,Pipe Nodes
 Component Set,26,BRANCH,MAIN SERVICE WATER LOOP DEMAND OUTLET BRANCH,PIPE:ADIABATIC,PIPE ADIABATIC 4,PIPE ADIABATIC 4 INLET WATER NODE,MAIN SERVICE WATER LOOP DEMAND OUTLET NODE,Pipe Nodes
 Component Set,27,BRANCH,OFFICE SHARED SERVICE WATER LOOP SUPPLY INLET BRANCH,PUMP:CONSTANTSPEED,OFFICE SHARED SERVICE WATER LOOP CIRCULATOR PUMP,OFFICE SHARED SERVICE WATER LOOP SUPPLY INLET NODE,OFFICE SHARED SERVICE WATER LOOP CIRCULATOR PUMP OUTLET WATER NODE,Water Nodes
 Component Set,28,BRANCH,OFFICE SHARED SERVICE WATER LOOP SUPPLY BRANCH 1,WATERHEATER:MIXED,40GAL NATURALGAS WATER HEATER - 3KBTU/HR 0.82 THERM EFF,40GAL NATURALGAS WATER HEATER - 3KBTU/HR SUPPLY INLET WATER NODE,40GAL NATURALGAS WATER HEATER - 3KBTU/HR SUPPLY OUTLET WATER NODE,Use Side Water Nodes
 Component Set,29,BRANCH,OFFICE SHARED SERVICE WATER LOOP SUPPLY BRANCH 2,PIPE:ADIABATIC,PIPE ADIABATIC 5,PIPE ADIABATIC 5 INLET WATER NODE,PIPE ADIABATIC 5 OUTLET WATER NODE,Pipe Nodes
 Component Set,30,BRANCH,OFFICE SHARED SERVICE WATER LOOP SUPPLY OUTLET BRANCH,PIPE:ADIABATIC,PIPE ADIABATIC 7,PIPE ADIABATIC 7 INLET WATER NODE,OFFICE SHARED SERVICE WATER LOOP SUPPLY OUTLET NODE,Pipe Nodes
 Component Set,31,BRANCH,OFFICE SHARED SERVICE WATER LOOP DEMAND INLET BRANCH,PIPE:INDOOR,OFFICE SHARED SERVICE WATER LOOP PIPE 132.5111316078767FT,OFFICE SHARED SERVICE WATER LOOP DEMAND INLET NODE,OFFICE SHARED SERVICE WATER LOOP PIPE 132.5111316078767FT OUTLET WATER NODE,Pipe Nodes
 Component Set,32,BRANCH,OFFICE SHARED SERVICE WATER LOOP DEMAND BRANCH 1,PIPE:ADIABATIC,PIPE ADIABATIC 6,PIPE ADIABATIC 6 INLET WATER NODE,PIPE ADIABATIC 6 OUTLET WATER NODE,Pipe Nodes
 Component Set,33,BRANCH,OFFICE SHARED SERVICE WATER LOOP DEMAND BRANCH 2,WATERUSE:CONNECTIONS,OFFICE WHOLEBUILDING - SM OFFICE 2 - 90.1-2004 WUC 0.04GPM AT 140F,OFFICE WHOLEBUILDING - SM OFFICE 2 - 90.1-2004 WUC 0.04GPM AT 140F INLET WATER NODE,OFFICE WHOLEBUILDING - SM OFFICE 2 - 90.1-2004 WUC 0.04GPM AT 140F OUTLET WATER NODE,DHW Nodes
 Component Set,34,BRANCH,OFFICE SHARED SERVICE WATER LOOP DEMAND BYPASS BRANCH,PIPE:ADIABATIC,OFFICE SHARED SERVICE WATER LOOP DEMAND BYPASS PIPE,OFFICE SHARED SERVICE WATER LOOP DEMAND BYPASS PIPE INLET NODE,OFFICE SHARED SERVICE WATER LOOP DEMAND BYPASS PIPE OUTLET NODE,Pipe Nodes
 Component Set,35,BRANCH,OFFICE SHARED SERVICE WATER LOOP DEMAND OUTLET BRANCH,PIPE:ADIABATIC,PIPE ADIABATIC 8,PIPE ADIABATIC 8 INLET WATER NODE,OFFICE SHARED SERVICE WATER LOOP DEMAND OUTLET NODE,Pipe Nodes
 Component Set,36,ZONEHVAC:AIRDISTRIBUTIONUNIT,ADU ZONE OFFICE WHOLEBUILDING - SM OFFICE 2 A  - STORY GROUND PSZ-AC DIFFUSER,AIRTERMINAL:SINGLEDUCT:CONSTANTVOLUME:NOREHEAT,ZONE OFFICE WHOLEBUILDING - SM OFFICE 2 A  - STORY GROUND PSZ-AC DIFFUSER,ZONE OFFICE WHOLEBUILDING - SM OFFICE 2 A  - STORY GROUND PSZ-AC DIFFUSER INLET AIR NODE,ZONE OFFICE WHOLEBUILDING - SM OFFICE 2 A  - STORY GROUND PSZ-AC DIFFUSER OUTLET AIR NODE,Air Nodes
 Component Set,37,ZONEHVAC:AIRDISTRIBUTIONUNIT,ADU ZONE OFFICE WHOLEBUILDING - SM OFFICE 2 A END_A - STORY GROUND PSZ-AC DIFFUSER,AIRTERMINAL:SINGLEDUCT:CONSTANTVOLUME:NOREHEAT,ZONE OFFICE WHOLEBUILDING - SM OFFICE 2 A END_A - STORY GROUND PSZ-AC DIFFUSER,ZONE OFFICE WHOLEBUILDING - SM OFFICE 2 A END_A - STORY GROUND PSZ-AC DIFFUSER INLET AIR NODE,ZONE OFFICE WHOLEBUILDING - SM OFFICE 2 A END_A - STORY GROUND PSZ-AC DIFFUSER OUTLET AIR NODE,Air Nodes
 Component Set,38,ZONEHVAC:AIRDISTRIBUTIONUNIT,ADU ZONE OFFICE WHOLEBUILDING - SM OFFICE 2 A END_B - STORY GROUND PSZ-AC DIFFUSER,AIRTERMINAL:SINGLEDUCT:CONSTANTVOLUME:NOREHEAT,ZONE OFFICE WHOLEBUILDING - SM OFFICE 2 A END_B - STORY GROUND PSZ-AC DIFFUSER,ZONE OFFICE WHOLEBUILDING - SM OFFICE 2 A END_B - STORY GROUND PSZ-AC DIFFUSER INLET AIR NODE,ZONE OFFICE WHOLEBUILDING - SM OFFICE 2 A END_B - STORY GROUND PSZ-AC DIFFUSER OUTLET AIR NODE,Air Nodes
 Component Set,39,ZONEHVAC:AIRDISTRIBUTIONUNIT,ADU ZONE OFFICE WHOLEBUILDING - SM OFFICE 2 B  - STORY GROUND PSZ-AC DIFFUSER,AIRTERMINAL:SINGLEDUCT:CONSTANTVOLUME:NOREHEAT,ZONE OFFICE WHOLEBUILDING - SM OFFICE 2 B  - STORY GROUND PSZ-AC DIFFUSER,ZONE OFFICE WHOLEBUILDING - SM OFFICE 2 B  - STORY GROUND PSZ-AC DIFFUSER INLET AIR NODE,ZONE OFFICE WHOLEBUILDING - SM OFFICE 2 B  - STORY GROUND PSZ-AC DIFFUSER OUTLET AIR NODE,Air Nodes
 Component Set,40,ZONEHVAC:AIRDISTRIBUTIONUNIT,ADU ZONE OFFICE WHOLEBUILDING - SM OFFICE 2 B END_A - STORY GROUND PSZ-AC DIFFUSER,AIRTERMINAL:SINGLEDUCT:CONSTANTVOLUME:NOREHEAT,ZONE OFFICE WHOLEBUILDING - SM OFFICE 2 B END_A - STORY GROUND PSZ-AC DIFFUSER,ZONE OFFICE WHOLEBUILDING - SM OFFICE 2 B END_A - STORY GROUND PSZ-AC DIFFUSER INLET AIR NODE,ZONE OFFICE WHOLEBUILDING - SM OFFICE 2 B END_A - STORY GROUND PSZ-AC DIFFUSER OUTLET AIR NODE,Air Nodes
 Component Set,41,ZONEHVAC:AIRDISTRIBUTIONUNIT,ADU ZONE OFFICE WHOLEBUILDING - SM OFFICE 2 B END_B - STORY GROUND PSZ-AC DIFFUSER,AIRTERMINAL:SINGLEDUCT:CONSTANTVOLUME:NOREHEAT,ZONE OFFICE WHOLEBUILDING - SM OFFICE 2 B END_B - STORY GROUND PSZ-AC DIFFUSER,ZONE OFFICE WHOLEBUILDING - SM OFFICE 2 B END_B - STORY GROUND PSZ-AC DIFFUSER INLET AIR NODE,ZONE OFFICE WHOLEBUILDING - SM OFFICE 2 B END_B - STORY GROUND PSZ-AC DIFFUSER OUTLET AIR NODE,Air Nodes
 Component Set,42,ZONEHVAC:AIRDISTRIBUTIONUNIT,ADU ZONE OFFICE WHOLEBUILDING - SM OFFICE 2 C  - STORY GROUND PSZ-AC DIFFUSER,AIRTERMINAL:SINGLEDUCT:CONSTANTVOLUME:NOREHEAT,ZONE OFFICE WHOLEBUILDING - SM OFFICE 2 C  - STORY GROUND PSZ-AC DIFFUSER,ZONE OFFICE WHOLEBUILDING - SM OFFICE 2 C  - STORY GROUND PSZ-AC DIFFUSER INLET AIR NODE,ZONE OFFICE WHOLEBUILDING - SM OFFICE 2 C  - STORY GROUND PSZ-AC DIFFUSER OUTLET AIR NODE,Air Nodes
 Component Set,43,ZONEHVAC:AIRDISTRIBUTIONUNIT,ADU ZONE OFFICE WHOLEBUILDING - SM OFFICE 2 C END_A - STORY GROUND PSZ-AC DIFFUSER,AIRTERMINAL:SINGLEDUCT:CONSTANTVOLUME:NOREHEAT,ZONE OFFICE WHOLEBUILDING - SM OFFICE 2 C END_A - STORY GROUND PSZ-AC DIFFUSER,ZONE OFFICE WHOLEBUILDING - SM OFFICE 2 C END_A - STORY GROUND PSZ-AC DIFFUSER INLET AIR NODE,ZONE OFFICE WHOLEBUILDING - SM OFFICE 2 C END_A - STORY GROUND PSZ-AC DIFFUSER OUTLET AIR NODE,Air Nodes
 Component Set,44,ZONEHVAC:AIRDISTRIBUTIONUNIT,ADU ZONE OFFICE WHOLEBUILDING - SM OFFICE 2 C END_B - STORY GROUND PSZ-AC DIFFUSER,AIRTERMINAL:SINGLEDUCT:CONSTANTVOLUME:NOREHEAT,ZONE OFFICE WHOLEBUILDING - SM OFFICE 2 C END_B - STORY GROUND PSZ-AC DIFFUSER,ZONE OFFICE WHOLEBUILDING - SM OFFICE 2 C END_B - STORY GROUND PSZ-AC DIFFUSER INLET AIR NODE,ZONE OFFICE WHOLEBUILDING - SM OFFICE 2 C END_B - STORY GROUND PSZ-AC DIFFUSER OUTLET AIR NODE,Air Nodes
 Component Set,45,AIRLOOPHVAC:OUTDOORAIRSYSTEM,ZONE OFFICE WHOLEBUILDING - SM OFFICE 2 A  - STORY GROUND PSZ-AC OA SYSTEM,OUTDOORAIR:MIXER,ZONE OFFICE WHOLEBUILDING - SM OFFICE 2 A  - STORY GROUND PSZ-AC OA SYSTEM OUTDOOR AIR MIXER,ZONE OFFICE WHOLEBUILDING - SM OFFICE 2 A  - STORY GROUND PSZ-AC OUTDOOR AIR NODE,ZONE OFFICE WHOLEBUILDING - SM OFFICE 2 A  - STORY GROUND PSZ-AC MIXED AIR NODE,Air Nodes
 Component Set,46,AIRLOOPHVAC:OUTDOORAIRSYSTEM,ZONE OFFICE WHOLEBUILDING - SM OFFICE 2 A END_A - STORY GROUND PSZ-AC OA SYSTEM,OUTDOORAIR:MIXER,ZONE OFFICE WHOLEBUILDING - SM OFFICE 2 A END_A - STORY GROUND PSZ-AC OA SYSTEM OUTDOOR AIR MIXER,ZONE OFFICE WHOLEBUILDING - SM OFFICE 2 A END_A - STORY GROUND PSZ-AC OUTDOOR AIR NODE,ZONE OFFICE WHOLEBUILDING - SM OFFICE 2 A END_A - STORY GROUND PSZ-AC MIXED AIR NODE,Air Nodes
 Component Set,47,AIRLOOPHVAC:OUTDOORAIRSYSTEM,ZONE OFFICE WHOLEBUILDING - SM OFFICE 2 A END_B - STORY GROUND PSZ-AC OA SYSTEM,OUTDOORAIR:MIXER,ZONE OFFICE WHOLEBUILDING - SM OFFICE 2 A END_B - STORY GROUND PSZ-AC OA SYSTEM OUTDOOR AIR MIXER,ZONE OFFICE WHOLEBUILDING - SM OFFICE 2 A END_B - STORY GROUND PSZ-AC OUTDOOR AIR NODE,ZONE OFFICE WHOLEBUILDING - SM OFFICE 2 A END_B - STORY GROUND PSZ-AC MIXED AIR NODE,Air Nodes
 Component Set,48,AIRLOOPHVAC:OUTDOORAIRSYSTEM,ZONE OFFICE WHOLEBUILDING - SM OFFICE 2 B  - STORY GROUND PSZ-AC OA SYSTEM,OUTDOORAIR:MIXER,ZONE OFFICE WHOLEBUILDING - SM OFFICE 2 B  - STORY GROUND PSZ-AC OA SYSTEM OUTDOOR AIR MIXER,ZONE OFFICE WHOLEBUILDING - SM OFFICE 2 B  - STORY GROUND PSZ-AC OUTDOOR AIR NODE,ZONE OFFICE WHOLEBUILDING - SM OFFICE 2 B  - STORY GROUND PSZ-AC MIXED AIR NODE,Air Nodes
 Component Set,49,AIRLOOPHVAC:OUTDOORAIRSYSTEM,ZONE OFFICE WHOLEBUILDING - SM OFFICE 2 B END_A - STORY GROUND PSZ-AC OA SYSTEM,OUTDOORAIR:MIXER,ZONE OFFICE WHOLEBUILDING - SM OFFICE 2 B END_A - STORY GROUND PSZ-AC OA SYSTEM OUTDOOR AIR MIXER,ZONE OFFICE WHOLEBUILDING - SM OFFICE 2 B END_A - STORY GROUND PSZ-AC OUTDOOR AIR NODE,ZONE OFFICE WHOLEBUILDING - SM OFFICE 2 B END_A - STORY GROUND PSZ-AC MIXED AIR NODE,Air Nodes
 Component Set,50,AIRLOOPHVAC:OUTDOORAIRSYSTEM,ZONE OFFICE WHOLEBUILDING - SM OFFICE 2 B END_B - STORY GROUND PSZ-AC OA SYSTEM,OUTDOORAIR:MIXER,ZONE OFFICE WHOLEBUILDING - SM OFFICE 2 B END_B - STORY GROUND PSZ-AC OA SYSTEM OUTDOOR AIR MIXER,ZONE OFFICE WHOLEBUILDING - SM OFFICE 2 B END_B - STORY GROUND PSZ-AC OUTDOOR AIR NODE,ZONE OFFICE WHOLEBUILDING - SM OFFICE 2 B END_B - STORY GROUND PSZ-AC MIXED AIR NODE,Air Nodes
 Component Set,51,AIRLOOPHVAC:OUTDOORAIRSYSTEM,ZONE OFFICE WHOLEBUILDING - SM OFFICE 2 C  - STORY GROUND PSZ-AC OA SYSTEM,OUTDOORAIR:MIXER,ZONE OFFICE WHOLEBUILDING - SM OFFICE 2 C  - STORY GROUND PSZ-AC OA SYSTEM OUTDOOR AIR MIXER,ZONE OFFICE WHOLEBUILDING - SM OFFICE 2 C  - STORY GROUND PSZ-AC OUTDOOR AIR NODE,ZONE OFFICE WHOLEBUILDING - SM OFFICE 2 C  - STORY GROUND PSZ-AC MIXED AIR NODE,Air Nodes
 Component Set,52,AIRLOOPHVAC:OUTDOORAIRSYSTEM,ZONE OFFICE WHOLEBUILDING - SM OFFICE 2 C END_A - STORY GROUND PSZ-AC OA SYSTEM,OUTDOORAIR:MIXER,ZONE OFFICE WHOLEBUILDING - SM OFFICE 2 C END_A - STORY GROUND PSZ-AC OA SYSTEM OUTDOOR AIR MIXER,ZONE OFFICE WHOLEBUILDING - SM OFFICE 2 C END_A - STORY GROUND PSZ-AC OUTDOOR AIR NODE,ZONE OFFICE WHOLEBUILDING - SM OFFICE 2 C END_A - STORY GROUND PSZ-AC MIXED AIR NODE,Air Nodes
 Component Set,53,AIRLOOPHVAC:OUTDOORAIRSYSTEM,ZONE OFFICE WHOLEBUILDING - SM OFFICE 2 C END_B - STORY GROUND PSZ-AC OA SYSTEM,OUTDOORAIR:MIXER,ZONE OFFICE WHOLEBUILDING - SM OFFICE 2 C END_B - STORY GROUND PSZ-AC OA SYSTEM OUTDOOR AIR MIXER,ZONE OFFICE WHOLEBUILDING - SM OFFICE 2 C END_B - STORY GROUND PSZ-AC OUTDOOR AIR NODE,ZONE OFFICE WHOLEBUILDING - SM OFFICE 2 C END_B - STORY GROUND PSZ-AC MIXED AIR NODE,Air Nodes
 Component Set,54,AIRLOOPHVAC:UNITARYSYSTEM,ZONE OFFICE WHOLEBUILDING - SM OFFICE 2 A  - STORY GROUND PSZ-AC UNITARY AC,COIL:HEATING:ELECTRIC,ZONE OFFICE WHOLEBUILDING - SM OFFICE 2 A  - STORY GROUND PSZ-AC NO HEAT,ZONE OFFICE WHOLEBUILDING - SM OFFICE 2 A  - STORY GROUND PSZ-AC UNITARY AC FAN - SUPPLEMENTAL COIL NODE,ZONE OFFICE WHOLEBUILDING - SM OFFICE 2 A  - STORY GROUND PSZ-AC SUPPLY OUTLET NODE,Air Nodes
 Component Set,55,AIRLOOPHVAC:UNITARYSYSTEM,ZONE OFFICE WHOLEBUILDING - SM OFFICE 2 A END_A - STORY GROUND PSZ-AC UNITARY AC,COIL:HEATING:ELECTRIC,ZONE OFFICE WHOLEBUILDING - SM OFFICE 2 A END_A - STORY GROUND PSZ-AC NO HEAT,ZONE OFFICE WHOLEBUILDING - SM OFFICE 2 A END_A - STORY GROUND PSZ-AC UNITARY AC FAN - SUPPLEMENTAL COIL NODE,ZONE OFFICE WHOLEBUILDING - SM OFFICE 2 A END_A - STORY GROUND PSZ-AC SUPPLY OUTLET NODE,Air Nodes
 Component Set,56,AIRLOOPHVAC:UNITARYSYSTEM,ZONE OFFICE WHOLEBUILDING - SM OFFICE 2 A END_B - STORY GROUND PSZ-AC UNITARY AC,COIL:HEATING:ELECTRIC,ZONE OFFICE WHOLEBUILDING - SM OFFICE 2 A END_B - STORY GROUND PSZ-AC NO HEAT,ZONE OFFICE WHOLEBUILDING - SM OFFICE 2 A END_B - STORY GROUND PSZ-AC UNITARY AC FAN - SUPPLEMENTAL COIL NODE,ZONE OFFICE WHOLEBUILDING - SM OFFICE 2 A END_B - STORY GROUND PSZ-AC SUPPLY OUTLET NODE,Air Nodes
 Component Set,57,AIRLOOPHVAC:UNITARYSYSTEM,ZONE OFFICE WHOLEBUILDING - SM OFFICE 2 B  - STORY GROUND PSZ-AC UNITARY AC,COIL:HEATING:ELECTRIC,ZONE OFFICE WHOLEBUILDING - SM OFFICE 2 B  - STORY GROUND PSZ-AC NO HEAT,ZONE OFFICE WHOLEBUILDING - SM OFFICE 2 B  - STORY GROUND PSZ-AC UNITARY AC FAN - SUPPLEMENTAL COIL NODE,ZONE OFFICE WHOLEBUILDING - SM OFFICE 2 B  - STORY GROUND PSZ-AC SUPPLY OUTLET NODE,Air Nodes
 Component Set,58,AIRLOOPHVAC:UNITARYSYSTEM,ZONE OFFICE WHOLEBUILDING - SM OFFICE 2 B END_A - STORY GROUND PSZ-AC UNITARY AC,COIL:HEATING:ELECTRIC,ZONE OFFICE WHOLEBUILDING - SM OFFICE 2 B END_A - STORY GROUND PSZ-AC NO HEAT,ZONE OFFICE WHOLEBUILDING - SM OFFICE 2 B END_A - STORY GROUND PSZ-AC UNITARY AC FAN - SUPPLEMENTAL COIL NODE,ZONE OFFICE WHOLEBUILDING - SM OFFICE 2 B END_A - STORY GROUND PSZ-AC SUPPLY OUTLET NODE,Air Nodes
 Component Set,59,AIRLOOPHVAC:UNITARYSYSTEM,ZONE OFFICE WHOLEBUILDING - SM OFFICE 2 B END_B - STORY GROUND PSZ-AC UNITARY AC,COIL:HEATING:ELECTRIC,ZONE OFFICE WHOLEBUILDING - SM OFFICE 2 B END_B - STORY GROUND PSZ-AC NO HEAT,ZONE OFFICE WHOLEBUILDING - SM OFFICE 2 B END_B - STORY GROUND PSZ-AC UNITARY AC FAN - SUPPLEMENTAL COIL NODE,ZONE OFFICE WHOLEBUILDING - SM OFFICE 2 B END_B - STORY GROUND PSZ-AC SUPPLY OUTLET NODE,Air Nodes
 Component Set,60,AIRLOOPHVAC:UNITARYSYSTEM,ZONE OFFICE WHOLEBUILDING - SM OFFICE 2 C  - STORY GROUND PSZ-AC UNITARY AC,COIL:HEATING:ELECTRIC,ZONE OFFICE WHOLEBUILDING - SM OFFICE 2 C  - STORY GROUND PSZ-AC NO HEAT,ZONE OFFICE WHOLEBUILDING - SM OFFICE 2 C  - STORY GROUND PSZ-AC UNITARY AC FAN - SUPPLEMENTAL COIL NODE,ZONE OFFICE WHOLEBUILDING - SM OFFICE 2 C  - STORY GROUND PSZ-AC SUPPLY OUTLET NODE,Air Nodes
 Component Set,61,AIRLOOPHVAC:UNITARYSYSTEM,ZONE OFFICE WHOLEBUILDING - SM OFFICE 2 C END_A - STORY GROUND PSZ-AC UNITARY AC,COIL:HEATING:ELECTRIC,ZONE OFFICE WHOLEBUILDING - SM OFFICE 2 C END_A - STORY GROUND PSZ-AC NO HEAT,ZONE OFFICE WHOLEBUILDING - SM OFFICE 2 C END_A - STORY GROUND PSZ-AC UNITARY AC FAN - SUPPLEMENTAL COIL NODE,ZONE OFFICE WHOLEBUILDING - SM OFFICE 2 C END_A - STORY GROUND PSZ-AC SUPPLY OUTLET NODE,Air Nodes
 Component Set,62,AIRLOOPHVAC:UNITARYSYSTEM,ZONE OFFICE WHOLEBUILDING - SM OFFICE 2 C END_B - STORY GROUND PSZ-AC UNITARY AC,COIL:HEATING:ELECTRIC,ZONE OFFICE WHOLEBUILDING - SM OFFICE 2 C END_B - STORY GROUND PSZ-AC NO HEAT,ZONE OFFICE WHOLEBUILDING - SM OFFICE 2 C END_B - STORY GROUND PSZ-AC UNITARY AC FAN - SUPPLEMENTAL COIL NODE,ZONE OFFICE WHOLEBUILDING - SM OFFICE 2 C END_B - STORY GROUND PSZ-AC SUPPLY OUTLET NODE,Air Nodes
 Component Set,63,AIRLOOPHVAC:UNITARYSYSTEM,ZONE OFFICE WHOLEBUILDING - SM OFFICE 2 A  - STORY GROUND PSZ-AC UNITARY AC,COIL:HEATING:FUEL,ZONE OFFICE WHOLEBUILDING - SM OFFICE 2 A  - STORY GROUND PSZ-AC GAS HTG COIL 50KBTU/HR 0.8 THERMAL EFF,ZONE OFFICE WHOLEBUILDING - SM OFFICE 2 A  - STORY GROUND PSZ-AC UNITARY AC COOLING COIL - HEATING COIL NODE,ZONE OFFICE WHOLEBUILDING - SM OFFICE 2 A  - STORY GROUND PSZ-AC UNITARY AC HEATING COIL - FAN NODE,Air Nodes
 Component Set,64,AIRLOOPHVAC:UNITARYSYSTEM,ZONE OFFICE WHOLEBUILDING - SM OFFICE 2 A END_A - STORY GROUND PSZ-AC UNITARY AC,COIL:HEATING:FUEL,ZONE OFFICE WHOLEBUILDING - SM OFFICE 2 A END_A - STORY GROUND PSZ-AC GAS HTG COIL 20KBTU/HR 0.8 THERMAL EFF,ZONE OFFICE WHOLEBUILDING - SM OFFICE 2 A END_A - STORY GROUND PSZ-AC UNITARY AC COOLING COIL - HEATING COIL NODE,ZONE OFFICE WHOLEBUILDING - SM OFFICE 2 A END_A - STORY GROUND PSZ-AC UNITARY AC HEATING COIL - FAN NODE,Air Nodes
 Component Set,65,AIRLOOPHVAC:UNITARYSYSTEM,ZONE OFFICE WHOLEBUILDING - SM OFFICE 2 A END_B - STORY GROUND PSZ-AC UNITARY AC,COIL:HEATING:FUEL,ZONE OFFICE WHOLEBUILDING - SM OFFICE 2 A END_B - STORY GROUND PSZ-AC GAS HTG COIL 19KBTU/HR 0.8 THERMAL EFF,ZONE OFFICE WHOLEBUILDING - SM OFFICE 2 A END_B - STORY GROUND PSZ-AC UNITARY AC COOLING COIL - HEATING COIL NODE,ZONE OFFICE WHOLEBUILDING - SM OFFICE 2 A END_B - STORY GROUND PSZ-AC UNITARY AC HEATING COIL - FAN NODE,Air Nodes
 Component Set,66,AIRLOOPHVAC:UNITARYSYSTEM,ZONE OFFICE WHOLEBUILDING - SM OFFICE 2 B  - STORY GROUND PSZ-AC UNITARY AC,COIL:HEATING:FUEL,ZONE OFFICE WHOLEBUILDING - SM OFFICE 2 B  - STORY GROUND PSZ-AC GAS HTG COIL 42KBTU/HR 0.8 THERMAL EFF,ZONE OFFICE WHOLEBUILDING - SM OFFICE 2 B  - STORY GROUND PSZ-AC UNITARY AC COOLING COIL - HEATING COIL NODE,ZONE OFFICE WHOLEBUILDING - SM OFFICE 2 B  - STORY GROUND PSZ-AC UNITARY AC HEATING COIL - FAN NODE,Air Nodes
 Component Set,67,AIRLOOPHVAC:UNITARYSYSTEM,ZONE OFFICE WHOLEBUILDING - SM OFFICE 2 B END_A - STORY GROUND PSZ-AC UNITARY AC,COIL:HEATING:FUEL,ZONE OFFICE WHOLEBUILDING - SM OFFICE 2 B END_A - STORY GROUND PSZ-AC GAS HTG COIL 24KBTU/HR 0.8 THERMAL EFF,ZONE OFFICE WHOLEBUILDING - SM OFFICE 2 B END_A - STORY GROUND PSZ-AC UNITARY AC COOLING COIL - HEATING COIL NODE,ZONE OFFICE WHOLEBUILDING - SM OFFICE 2 B END_A - STORY GROUND PSZ-AC UNITARY AC HEATING COIL - FAN NODE,Air Nodes
 Component Set,68,AIRLOOPHVAC:UNITARYSYSTEM,ZONE OFFICE WHOLEBUILDING - SM OFFICE 2 B END_B - STORY GROUND PSZ-AC UNITARY AC,COIL:HEATING:FUEL,ZONE OFFICE WHOLEBUILDING - SM OFFICE 2 B END_B - STORY GROUND PSZ-AC GAS HTG COIL 23KBTU/HR 0.8 THERMAL EFF,ZONE OFFICE WHOLEBUILDING - SM OFFICE 2 B END_B - STORY GROUND PSZ-AC UNITARY AC COOLING COIL - HEATING COIL NODE,ZONE OFFICE WHOLEBUILDING - SM OFFICE 2 B END_B - STORY GROUND PSZ-AC UNITARY AC HEATING COIL - FAN NODE,Air Nodes
 Component Set,69,AIRLOOPHVAC:UNITARYSYSTEM,ZONE OFFICE WHOLEBUILDING - SM OFFICE 2 C  - STORY GROUND PSZ-AC UNITARY AC,COIL:HEATING:FUEL,ZONE OFFICE WHOLEBUILDING - SM OFFICE 2 C  - STORY GROUND PSZ-AC GAS HTG COIL 27KBTU/HR 0.8 THERMAL EFF,ZONE OFFICE WHOLEBUILDING - SM OFFICE 2 C  - STORY GROUND PSZ-AC UNITARY AC COOLING COIL - HEATING COIL NODE,ZONE OFFICE WHOLEBUILDING - SM OFFICE 2 C  - STORY GROUND PSZ-AC UNITARY AC HEATING COIL - FAN NODE,Air Nodes
 Component Set,70,AIRLOOPHVAC:UNITARYSYSTEM,ZONE OFFICE WHOLEBUILDING - SM OFFICE 2 C END_A - STORY GROUND PSZ-AC UNITARY AC,COIL:HEATING:FUEL,ZONE OFFICE WHOLEBUILDING - SM OFFICE 2 C END_A - STORY GROUND PSZ-AC GAS HTG COIL 15KBTU/HR 0.8 THERMAL EFF,ZONE OFFICE WHOLEBUILDING - SM OFFICE 2 C END_A - STORY GROUND PSZ-AC UNITARY AC COOLING COIL - HEATING COIL NODE,ZONE OFFICE WHOLEBUILDING - SM OFFICE 2 C END_A - STORY GROUND PSZ-AC UNITARY AC HEATING COIL - FAN NODE,Air Nodes
 Component Set,71,AIRLOOPHVAC:UNITARYSYSTEM,ZONE OFFICE WHOLEBUILDING - SM OFFICE 2 C END_B - STORY GROUND PSZ-AC UNITARY AC,COIL:HEATING:FUEL,ZONE OFFICE WHOLEBUILDING - SM OFFICE 2 C END_B - STORY GROUND PSZ-AC GAS HTG COIL 15KBTU/HR 0.8 THERMAL EFF,ZONE OFFICE WHOLEBUILDING - SM OFFICE 2 C END_B - STORY GROUND PSZ-AC UNITARY AC COOLING COIL - HEATING COIL NODE,ZONE OFFICE WHOLEBUILDING - SM OFFICE 2 C END_B - STORY GROUND PSZ-AC UNITARY AC HEATING COIL - FAN NODE,Air Nodes
 Component Set,72,AIRLOOPHVAC:UNITARYSYSTEM,ZONE OFFICE WHOLEBUILDING - SM OFFICE 2 A  - STORY GROUND PSZ-AC UNITARY AC,FAN:ONOFF,ZONE OFFICE WHOLEBUILDING - SM OFFICE 2 A  - STORY GROUND PSZ-AC FAN,ZONE OFFICE WHOLEBUILDING - SM OFFICE 2 A  - STORY GROUND PSZ-AC UNITARY AC HEATING COIL - FAN NODE,ZONE OFFICE WHOLEBUILDING - SM OFFICE 2 A  - STORY GROUND PSZ-AC UNITARY AC FAN - SUPPLEMENTAL COIL NODE,Air Nodes
 Component Set,73,AIRLOOPHVAC:UNITARYSYSTEM,ZONE OFFICE WHOLEBUILDING - SM OFFICE 2 A END_A - STORY GROUND PSZ-AC UNITARY AC,FAN:ONOFF,ZONE OFFICE WHOLEBUILDING - SM OFFICE 2 A END_A - STORY GROUND PSZ-AC FAN,ZONE OFFICE WHOLEBUILDING - SM OFFICE 2 A END_A - STORY GROUND PSZ-AC UNITARY AC HEATING COIL - FAN NODE,ZONE OFFICE WHOLEBUILDING - SM OFFICE 2 A END_A - STORY GROUND PSZ-AC UNITARY AC FAN - SUPPLEMENTAL COIL NODE,Air Nodes
[...]
 Non-Parent Node Connection,ZONE OFFICE WHOLEBUILDING - SM OFFICE 2 B END_B - STORY GROUND PSZ-AC UNITARY AC HEATING COIL - FAN NODE,COIL:HEATING:FUEL,ZONE OFFICE WHOLEBUILDING - SM OFFICE 2 B END_B - STORY GROUND PSZ-AC GAS HTG COIL 23KBTU/HR 0.8 THERMAL EFF,Outlet,1
 Non-Parent Node Connection,ZONE OFFICE WHOLEBUILDING - SM OFFICE 2 C  - STORY GROUND PSZ-AC UNITARY AC COOLING COIL - HEATING COIL NODE,COIL:HEATING:FUEL,ZONE OFFICE WHOLEBUILDING - SM OFFICE 2 C  - STORY GROUND PSZ-AC GAS HTG COIL 27KBTU/HR 0.8 THERMAL EFF,Inlet,1
 Non-Parent Node Connection,ZONE OFFICE WHOLEBUILDING - SM OFFICE 2 C  - STORY GROUND PSZ-AC UNITARY AC HEATING COIL - FAN NODE,COIL:HEATING:FUEL,ZONE OFFICE WHOLEBUILDING - SM OFFICE 2 C  - STORY GROUND PSZ-AC GAS HTG COIL 27KBTU/HR 0.8 THERMAL EFF,Outlet,1
 Non-Parent Node Connection,ZONE OFFICE WHOLEBUILDING - SM OFFICE 2 C END_A - STORY GROUND PSZ-AC UNITARY AC COOLING COIL - HEATING COIL NODE,COIL:HEATING:FUEL,ZONE OFFICE WHOLEBUILDING - SM OFFICE 2 C END_A - STORY GROUND PSZ-AC GAS HTG COIL 15KBTU/HR 0.8 THERMAL EFF,Inlet,1
 Non-Parent Node Connection,ZONE OFFICE WHOLEBUILDING - SM OFFICE 2 C END_A - STORY GROUND PSZ-AC UNITARY AC HEATING COIL - FAN NODE,COIL:HEATING:FUEL,ZONE OFFICE WHOLEBUILDING - SM OFFICE 2 C END_A - STORY GROUND PSZ-AC GAS HTG COIL 15KBTU/HR 0.8 THERMAL EFF,Outlet,1
 Non-Parent Node Connection,ZONE OFFICE WHOLEBUILDING - SM OFFICE 2 C END_B - STORY GROUND PSZ-AC UNITARY AC COOLING COIL - HEATING COIL NODE,COIL:HEATING:FUEL,ZONE OFFICE WHOLEBUILDING - SM OFFICE 2 C END_B - STORY GROUND PSZ-AC GAS HTG COIL 15KBTU/HR 0.8 THERMAL EFF,Inlet,1
 Non-Parent Node Connection,ZONE OFFICE WHOLEBUILDING - SM OFFICE 2 C END_B - STORY GROUND PSZ-AC UNITARY AC HEATING COIL - FAN NODE,COIL:HEATING:FUEL,ZONE OFFICE WHOLEBUILDING - SM OFFICE 2 C END_B - STORY GROUND PSZ-AC GAS HTG COIL 15KBTU/HR 0.8 THERMAL EFF,Outlet,1
 Non-Parent Node Connection,ZONE OFFICE WHOLEBUILDING - SM OFFICE 2 A  - STORY GROUND PSZ-AC UNITARY AC HEATING COIL - FAN NODE,FAN:ONOFF,ZONE OFFICE WHOLEBUILDING - SM OFFICE 2 A  - STORY GROUND PSZ-AC FAN,Inlet,1
 Non-Parent Node Connection,ZONE OFFICE WHOLEBUILDING - SM OFFICE 2 A  - STORY GROUND PSZ-AC UNITARY AC FAN - SUPPLEMENTAL COIL NODE,FAN:ONOFF,ZONE OFFICE WHOLEBUILDING - SM OFFICE 2 A  - STORY GROUND PSZ-AC FAN,Outlet,1
 Non-Parent Node Connection,ZONE OFFICE WHOLEBUILDING - SM OFFICE 2 A END_A - STORY GROUND PSZ-AC UNITARY AC HEATING COIL - FAN NODE,FAN:ONOFF,ZONE OFFICE WHOLEBUILDING - SM OFFICE 2 A END_A - STORY GROUND PSZ-AC FAN,Inlet,1
 Non-Parent Node Connection,ZONE OFFICE WHOLEBUILDING - SM OFFICE 2 A END_A - STORY GROUND PSZ-AC UNITARY AC FAN - SUPPLEMENTAL COIL NODE,FAN:ONOFF,ZONE OFFICE WHOLEBUILDING - SM OFFICE 2 A END_A - STORY GROUND PSZ-AC FAN,Outlet,1
 Non-Parent Node Connection,ZONE OFFICE WHOLEBUILDING - SM OFFICE 2 A END_B - STORY GROUND PSZ-AC UNITARY AC HEATING COIL - FAN NODE,FAN:ONOFF,ZONE OFFICE WHOLEBUILDING - SM OFFICE 2 A END_B - STORY GROUND PSZ-AC FAN,Inlet,1
 Non-Parent Node Connection,ZONE OFFICE WHOLEBUILDING - SM OFFICE 2 A END_B - STORY GROUND PSZ-AC UNITARY AC FAN - SUPPLEMENTAL COIL NODE,FAN:ONOFF,ZONE OFFICE WHOLEBUILDING - SM OFFICE 2 A END_B - STORY GROUND PSZ-AC FAN,Outlet,1
 Non-Parent Node Connection,ZONE OFFICE WHOLEBUILDING - SM OFFICE 2 B  - STORY GROUND PSZ-AC UNITARY AC HEATING COIL - FAN NODE,FAN:ONOFF,ZONE OFFICE WHOLEBUILDING - SM OFFICE 2 B  - STORY GROUND PSZ-AC FAN,Inlet,1
 Non-Parent Node Connection,ZONE OFFICE WHOLEBUILDING - SM OFFICE 2 B  - STORY GROUND PSZ-AC UNITARY AC FAN - SUPPLEMENTAL COIL NODE,FAN:ONOFF,ZONE OFFICE WHOLEBUILDING - SM OFFICE 2 B  - STORY GROUND PSZ-AC FAN,Outlet,1
 Non-Parent Node Connection,ZONE OFFICE WHOLEBUILDING - SM OFFICE 2 B END_A - STORY GROUND PSZ-AC UNITARY AC HEATING COIL - FAN NODE,FAN:ONOFF,ZONE OFFICE WHOLEBUILDING - SM OFFICE 2 B END_A - STORY GROUND PSZ-AC FAN,Inlet,1
 Non-Parent Node Connection,ZONE OFFICE WHOLEBUILDING - SM OFFICE 2 B END_A - STORY GROUND PSZ-AC UNITARY AC FAN - SUPPLEMENTAL COIL NODE,FAN:ONOFF,ZONE OFFICE WHOLEBUILDING - SM OFFICE 2 B END_A - STORY GROUND PSZ-AC FAN,Outlet,1
 Non-Parent Node Connection,ZONE OFFICE WHOLEBUILDING - SM OFFICE 2 B END_B - STORY GROUND PSZ-AC UNITARY AC HEATING COIL - FAN NODE,FAN:ONOFF,ZONE OFFICE WHOLEBUILDING - SM OFFICE 2 B END_B - STORY GROUND PSZ-AC FAN,Inlet,1
 Non-Parent Node Connection,ZONE OFFICE WHOLEBUILDING - SM OFFICE 2 B END_B - STORY GROUND PSZ-AC UNITARY AC FAN - SUPPLEMENTAL COIL NODE,FAN:ONOFF,ZONE OFFICE WHOLEBUILDING - SM OFFICE 2 B END_B - STORY GROUND PSZ-AC FAN,Outlet,1
 Non-Parent Node Connection,ZONE OFFICE WHOLEBUILDING - SM OFFICE 2 C  - STORY GROUND PSZ-AC UNITARY AC HEATING COIL - FAN NODE,FAN:ONOFF,ZONE OFFICE WHOLEBUILDING - SM OFFICE 2 C  - STORY GROUND PSZ-AC FAN,Inlet,1
 Non-Parent Node Connection,ZONE OFFICE WHOLEBUILDING - SM OFFICE 2 C  - STORY GROUND PSZ-AC UNITARY AC FAN - SUPPLEMENTAL COIL NODE,FAN:ONOFF,ZONE OFFICE WHOLEBUILDING - SM OFFICE 2 C  - STORY GROUND PSZ-AC FAN,Outlet,1
 Non-Parent Node Connection,ZONE OFFICE WHOLEBUILDING - SM OFFICE 2 C END_A - STORY GROUND PSZ-AC UNITARY AC HEATING COIL - FAN NODE,FAN:ONOFF,ZONE OFFICE WHOLEBUILDING - SM OFFICE 2 C END_A - STORY GROUND PSZ-AC FAN,Inlet,1
 Non-Parent Node Connection,ZONE OFFICE WHOLEBUILDING - SM OFFICE 2 C END_A - STORY GROUND PSZ-AC UNITARY AC FAN - SUPPLEMENTAL COIL NODE,FAN:ONOFF,ZONE OFFICE WHOLEBUILDING - SM OFFICE 2 C END_A - STORY GROUND PSZ-AC FAN,Outlet,1
 Non-Parent Node Connection,ZONE OFFICE WHOLEBUILDING - SM OFFICE 2 C END_B - STORY GROUND PSZ-AC UNITARY AC HEATING COIL - FAN NODE,FAN:ONOFF,ZONE OFFICE WHOLEBUILDING - SM OFFICE 2 C END_B - STORY GROUND PSZ-AC FAN,Inlet,1
 Non-Parent Node Connection,ZONE OFFICE WHOLEBUILDING - SM OFFICE 2 C END_B - STORY GROUND PSZ-AC UNITARY AC FAN - SUPPLEMENTAL COIL NODE,FAN:ONOFF,ZONE OFFICE WHOLEBUILDING - SM OFFICE 2 C END_B - STORY GROUND PSZ-AC FAN,Outlet,1
 Non-Parent Node Connection,ZONE OFFICE WHOLEBUILDING - SM OFFICE 2 A  - STORY GROUND PSZ-AC MIXED AIR NODE,COIL:COOLING:DX:SINGLESPEED,ZONE OFFICE WHOLEBUILDING - SM OFFICE 2 A  - STORY GROUND PSZ-AC 1SPD DX AC CLG COIL 22KBTU/HR 9.7SEER,Inlet,1
 Non-Parent Node Connection,ZONE OFFICE WHOLEBUILDING - SM OFFICE 2 A  - STORY GROUND PSZ-AC UNITARY AC COOLING COIL - HEATING COIL NODE,COIL:COOLING:DX:SINGLESPEED,ZONE OFFICE WHOLEBUILDING - SM OFFICE 2 A  - STORY GROUND PSZ-AC 1SPD DX AC CLG COIL 22KBTU/HR 9.7SEER,Outlet,1
 Non-Parent Node Connection,ZONE OFFICE WHOLEBUILDING - SM OFFICE 2 A END_A - STORY GROUND PSZ-AC MIXED AIR NODE,COIL:COOLING:DX:SINGLESPEED,ZONE OFFICE WHOLEBUILDING - SM OFFICE 2 A END_A - STORY GROUND PSZ-AC 1SPD DX AC CLG COIL 9KBTU/HR 9.7SEER,Inlet,1
 Non-Parent Node Connection,ZONE OFFICE WHOLEBUILDING - SM OFFICE 2 A END_A - STORY GROUND PSZ-AC UNITARY AC COOLING COIL - HEATING COIL NODE,COIL:COOLING:DX:SINGLESPEED,ZONE OFFICE WHOLEBUILDING - SM OFFICE 2 A END_A - STORY GROUND PSZ-AC 1SPD DX AC CLG COIL 9KBTU/HR 9.7SEER,Outlet,1
 Non-Parent Node Connection,ZONE OFFICE WHOLEBUILDING - SM OFFICE 2 A END_B - STORY GROUND PSZ-AC MIXED AIR NODE,COIL:COOLING:DX:SINGLESPEED,ZONE OFFICE WHOLEBUILDING - SM OFFICE 2 A END_B - STORY GROUND PSZ-AC 1SPD DX AC CLG COIL 8KBTU/HR 9.7SEER,Inlet,1
 Non-Parent Node Connection,ZONE OFFICE WHOLEBUILDING - SM OFFICE 2 A END_B - STORY GROUND PSZ-AC UNITARY AC COOLING COIL - HEATING COIL NODE,COIL:COOLING:DX:SINGLESPEED,ZONE OFFICE WHOLEBUILDING - SM OFFICE 2 A END_B - STORY GROUND PSZ-AC 1SPD DX AC CLG COIL 8KBTU/HR 9.7SEER,Outlet,1
 Non-Parent Node Connection,ZONE OFFICE WHOLEBUILDING - SM OFFICE 2 B  - STORY GROUND PSZ-AC MIXED AIR NODE,COIL:COOLING:DX:SINGLESPEED,ZONE OFFICE WHOLEBUILDING - SM OFFICE 2 B  - STORY GROUND PSZ-AC 1SPD DX AC CLG COIL 16KBTU/HR 9.7SEER,Inlet,1
 Non-Parent Node Connection,ZONE OFFICE WHOLEBUILDING - SM OFFICE 2 B  - STORY GROUND PSZ-AC UNITARY AC COOLING COIL - HEATING COIL NODE,COIL:COOLING:DX:SINGLESPEED,ZONE OFFICE WHOLEBUILDING - SM OFFICE 2 B  - STORY GROUND PSZ-AC 1SPD DX AC CLG COIL 16KBTU/HR 9.7SEER,Outlet,1
 Non-Parent Node Connection,ZONE OFFICE WHOLEBUILDING - SM OFFICE 2 B END_A - STORY GROUND PSZ-AC MIXED AIR NODE,COIL:COOLING:DX:SINGLESPEED,ZONE OFFICE WHOLEBUILDING - SM OFFICE 2 B END_A - STORY GROUND PSZ-AC 1SPD DX AC CLG COIL 10KBTU/HR 9.7SEER,Inlet,1
 Non-Parent Node Connection,ZONE OFFICE WHOLEBUILDING - SM OFFICE 2 B END_A - STORY GROUND PSZ-AC UNITARY AC COOLING COIL - HEATING COIL NODE,COIL:COOLING:DX:SINGLESPEED,ZONE OFFICE WHOLEBUILDING - SM OFFICE 2 B END_A - STORY GROUND PSZ-AC 1SPD DX AC CLG COIL 10KBTU/HR 9.7SEER,Outlet,1
 Non-Parent Node Connection,ZONE OFFICE WHOLEBUILDING - SM OFFICE 2 B END_B - STORY GROUND PSZ-AC MIXED AIR NODE,COIL:COOLING:DX:SINGLESPEED,ZONE OFFICE WHOLEBUILDING - SM OFFICE 2 B END_B - STORY GROUND PSZ-AC 1SPD DX AC CLG COIL 10KBTU/HR 9.7SEER,Inlet,1
 Non-Parent Node Connection,ZONE OFFICE WHOLEBUILDING - SM OFFICE 2 B END_B - STORY GROUND PSZ-AC UNITARY AC COOLING COIL - HEATING COIL NODE,COIL:COOLING:DX:SINGLESPEED,ZONE OFFICE WHOLEBUILDING - SM OFFICE 2 B END_B - STORY GROUND PSZ-AC 1SPD DX AC CLG COIL 10KBTU/HR 9.7SEER,Outlet,1
 Non-Parent Node Connection,ZONE OFFICE WHOLEBUILDING - SM OFFICE 2 C  - STORY GROUND PSZ-AC MIXED AIR NODE,COIL:COOLING:DX:SINGLESPEED,ZONE OFFICE WHOLEBUILDING - SM OFFICE 2 C  - STORY GROUND PSZ-AC 1SPD DX AC CLG COIL 10KBTU/HR 9.7SEER,Inlet,1
 Non-Parent Node Connection,ZONE OFFICE WHOLEBUILDING - SM OFFICE 2 C  - STORY GROUND PSZ-AC UNITARY AC COOLING COIL - HEATING COIL NODE,COIL:COOLING:DX:SINGLESPEED,ZONE OFFICE WHOLEBUILDING - SM OFFICE 2 C  - STORY GROUND PSZ-AC 1SPD DX AC CLG COIL 10KBTU/HR 9.7SEER,Outlet,1
 Non-Parent Node Connection,ZONE OFFICE WHOLEBUILDING - SM OFFICE 2 C END_A - STORY GROUND PSZ-AC MIXED AIR NODE,COIL:COOLING:DX:SINGLESPEED,ZONE OFFICE WHOLEBUILDING - SM OFFICE 2 C END_A - STORY GROUND PSZ-AC 1SPD DX AC CLG COIL 7KBTU/HR 9.7SEER,Inlet,1
 Non-Parent Node Connection,ZONE OFFICE WHOLEBUILDING - SM OFFICE 2 C END_A - STORY GROUND PSZ-AC UNITARY AC COOLING COIL - HEATING COIL NODE,COIL:COOLING:DX:SINGLESPEED,ZONE OFFICE WHOLEBUILDING - SM OFFICE 2 C END_A - STORY GROUND PSZ-AC 1SPD DX AC CLG COIL 7KBTU/HR 9.7SEER,Outlet,1
 Non-Parent Node Connection,ZONE OFFICE WHOLEBUILDING - SM OFFICE 2 C END_B - STORY GROUND PSZ-AC MIXED AIR NODE,COIL:COOLING:DX:SINGLESPEED,ZONE OFFICE WHOLEBUILDING - SM OFFICE 2 C END_B - STORY GROUND PSZ-AC 1SPD DX AC CLG COIL 6KBTU/HR 9.7SEER,Inlet,1
 Non-Parent Node Connection,ZONE OFFICE WHOLEBUILDING - SM OFFICE 2 C END_B - STORY GROUND PSZ-AC UNITARY AC COOLING COIL - HEATING COIL NODE,COIL:COOLING:DX:SINGLESPEED,ZONE OFFICE WHOLEBUILDING - SM OFFICE 2 C END_B - STORY GROUND PSZ-AC 1SPD DX AC CLG COIL 6KBTU/HR 9.7SEER,Outlet,1
 Non-Parent Node Connection,ZONE OFFICE WHOLEBUILDING - SM OFFICE 2 A  - STORY GROUND PSZ-AC MIXED AIR NODE,CONTROLLER:OUTDOORAIR,ZONE OFFICE WHOLEBUILDING - SM OFFICE 2 A  - STORY GROUND PSZ-AC OA SYSTEM CONTROLLER,Sensor,1
 Non-Parent Node Connection,ZONE OFFICE WHOLEBUILDING - SM OFFICE 2 A  - STORY GROUND PSZ-AC OUTDOOR AIR NODE,CONTROLLER:OUTDOORAIR,ZONE OFFICE WHOLEBUILDING - SM OFFICE 2 A  - STORY GROUND PSZ-AC OA SYSTEM CONTROLLER,Actuator,1
 Non-Parent Node Connection,ZONE OFFICE WHOLEBUILDING - SM OFFICE 2 A  - STORY GROUND PSZ-AC RELIEF AIR NODE,CONTROLLER:OUTDOORAIR,ZONE OFFICE WHOLEBUILDING - SM OFFICE 2 A  - STORY GROUND PSZ-AC OA SYSTEM CONTROLLER,Actuator,1
 Non-Parent Node Connection,ZONE OFFICE WHOLEBUILDING - SM OFFICE 2 A  - STORY GROUND PSZ-AC SUPPLY INLET NODE,CONTROLLER:OUTDOORAIR,ZONE OFFICE WHOLEBUILDING - SM OFFICE 2 A  - STORY GROUND PSZ-AC OA SYSTEM CONTROLLER,Sensor,1
 Non-Parent Node Connection,ZONE OFFICE WHOLEBUILDING - SM OFFICE 2 A END_A - STORY GROUND PSZ-AC MIXED AIR NODE,CONTROLLER:OUTDOORAIR,ZONE OFFICE WHOLEBUILDING - SM OFFICE 2 A END_A - STORY GROUND PSZ-AC OA SYSTEM CONTROLLER,Sensor,1
 Non-Parent Node Connection,ZONE OFFICE WHOLEBUILDING - SM OFFICE 2 A END_A - STORY GROUND PSZ-AC OUTDOOR AIR NODE,CONTROLLER:OUTDOORAIR,ZONE OFFICE WHOLEBUILDING - SM OFFICE 2 A END_A - STORY GROUND PSZ-AC OA SYSTEM CONTROLLER,Actuator,1
 Non-Parent Node Connection,ZONE OFFICE WHOLEBUILDING - SM OFFICE 2 A END_A - STORY GROUND PSZ-AC RELIEF AIR NODE,CONTROLLER:OUTDOORAIR,ZONE OFFICE WHOLEBUILDING - SM OFFICE 2 A END_A - STORY GROUND PSZ-AC OA SYSTEM CONTROLLER,Actuator,1
 Non-Parent Node Connection,ZONE OFFICE WHOLEBUILDING - SM OFFICE 2 A END_A - STORY GROUND PSZ-AC SUPPLY INLET NODE,CONTROLLER:OUTDOORAIR,ZONE OFFICE WHOLEBUILDING - SM OFFICE 2 A END_A - STORY GROUND PSZ-AC OA SYSTEM CONTROLLER,Sensor,1
 Non-Parent Node Connection,ZONE OFFICE WHOLEBUILDING - SM OFFICE 2 A END_B - STORY GROUND PSZ-AC MIXED AIR NODE,CONTROLLER:OUTDOORAIR,ZONE OFFICE WHOLEBUILDING - SM OFFICE 2 A END_B - STORY GROUND PSZ-AC OA SYSTEM CONTROLLER,Sensor,1
 Non-Parent Node Connection,ZONE OFFICE WHOLEBUILDING - SM OFFICE 2 A END_B - STORY GROUND PSZ-AC OUTDOOR AIR NODE,CONTROLLER:OUTDOORAIR,ZONE OFFICE WHOLEBUILDING - SM OFFICE 2 A END_B - STORY GROUND PSZ-AC OA SYSTEM CONTROLLER,Actuator,1
 Non-Parent Node Connection,ZONE OFFICE WHOLEBUILDING - SM OFFICE 2 A END_B - STORY GROUND PSZ-AC RELIEF AIR NODE,CONTROLLER:OUTDOORAIR,ZONE OFFICE WHOLEBUILDING - SM OFFICE 2 A END_B - STORY GROUND PSZ-AC OA SYSTEM CONTROLLER,Actuator,1
 Non-Parent Node Connection,ZONE OFFICE WHOLEBUILDING - SM OFFICE 2 A END_B - STORY GROUND PSZ-AC SUPPLY INLET NODE,CONTROLLER:OUTDOORAIR,ZONE OFFICE WHOLEBUILDING - SM OFFICE 2 A END_B - STORY GROUND PSZ-AC OA SYSTEM CONTROLLER,Sensor,1
 Non-Parent Node Connection,ZONE OFFICE WHOLEBUILDING - SM OFFICE 2 B  - STORY GROUND PSZ-AC MIXED AIR NODE,CONTROLLER:OUTDOORAIR,ZONE OFFICE WHOLEBUILDING - SM OFFICE 2 B  - STORY GROUND PSZ-AC OA SYSTEM CONTROLLER,Sensor,1
 Non-Parent Node Connection,ZONE OFFICE WHOLEBUILDING - SM OFFICE 2 B  - STORY GROUND PSZ-AC OUTDOOR AIR NODE,CONTROLLER:OUTDOORAIR,ZONE OFFICE WHOLEBUILDING - SM OFFICE 2 B  - STORY GROUND PSZ-AC OA SYSTEM CONTROLLER,Actuator,1
 Non-Parent Node Connection,ZONE OFFICE WHOLEBUILDING - SM OFFICE 2 B  - STORY GROUND PSZ-AC RELIEF AIR NODE,CONTROLLER:OUTDOORAIR,ZONE OFFICE WHOLEBUILDING - SM OFFICE 2 B  - STORY GROUND PSZ-AC OA SYSTEM CONTROLLER,Actuator,1
 Non-Parent Node Connection,ZONE OFFICE WHOLEBUILDING - SM OFFICE 2 B  - STORY GROUND PSZ-AC SUPPLY INLET NODE,CONTROLLER:OUTDOORAIR,ZONE OFFICE WHOLEBUILDING - SM OFFICE 2 B  - STORY GROUND PSZ-AC OA SYSTEM CONTROLLER,Sensor,1
 Non-Parent Node Connection,ZONE OFFICE WHOLEBUILDING - SM OFFICE 2 B END_A - STORY GROUND PSZ-AC MIXED AIR NODE,CONTROLLER:OUTDOORAIR,ZONE OFFICE WHOLEBUILDING - SM OFFICE 2 B END_A - STORY GROUND PSZ-AC OA SYSTEM CONTROLLER,Sensor,1
 Non-Parent Node Connection,ZONE OFFICE WHOLEBUILDING - SM OFFICE 2 B END_A - STORY GROUND PSZ-AC OUTDOOR AIR NODE,CONTROLLER:OUTDOORAIR,ZONE OFFICE WHOLEBUILDING - SM OFFICE 2 B END_A - STORY GROUND PSZ-AC OA SYSTEM CONTROLLER,Actuator,1
 Non-Parent Node Connection,ZONE OFFICE WHOLEBUILDING - SM OFFICE 2 B END_A - STORY GROUND PSZ-AC RELIEF AIR NODE,CONTROLLER:OUTDOORAIR,ZONE OFFICE WHOLEBUILDING - SM OFFICE 2 B END_A - STORY GROUND PSZ-AC OA SYSTEM CONTROLLER,Actuator,1
 Non-Parent Node Connection,ZONE OFFICE WHOLEBUILDING - SM OFFICE 2 B END_A - STORY GROUND PSZ-AC SUPPLY INLET NODE,CONTROLLER:OUTDOORAIR,ZONE OFFICE WHOLEBUILDING - SM OFFICE 2 B END_A - STORY GROUND PSZ-AC OA SYSTEM CONTROLLER,Sensor,1
 Non-Parent Node Connection,ZONE OFFICE WHOLEBUILDING - SM OFFICE 2 B END_B - STORY GROUND PSZ-AC MIXED AIR NODE,CONTROLLER:OUTDOORAIR,ZONE OFFICE WHOLEBUILDING - SM OFFICE 2 B END_B - STORY GROUND PSZ-AC OA SYSTEM CONTROLLER,Sensor,1
 Non-Parent Node Connection,ZONE OFFICE WHOLEBUILDING - SM OFFICE 2 B END_B - STORY GROUND PSZ-AC OUTDOOR AIR NODE,CONTROLLER:OUTDOORAIR,ZONE OFFICE WHOLEBUILDING - SM OFFICE 2 B END_B - STORY GROUND PSZ-AC OA SYSTEM CONTROLLER,Actuator,1
 Non-Parent Node Connection,ZONE OFFICE WHOLEBUILDING - SM OFFICE 2 B END_B - STORY GROUND PSZ-AC RELIEF AIR NODE,CONTROLLER:OUTDOORAIR,ZONE OFFICE WHOLEBUILDING - SM OFFICE 2 B END_B - STORY GROUND PSZ-AC OA SYSTEM CONTROLLER,Actuator,1
 Non-Parent Node Connection,ZONE OFFICE WHOLEBUILDING - SM OFFICE 2 B END_B - STORY GROUND PSZ-AC SUPPLY INLET NODE,CONTROLLER:OUTDOORAIR,ZONE OFFICE WHOLEBUILDING - SM OFFICE 2 B END_B - STORY GROUND PSZ-AC OA SYSTEM CONTROLLER,Sensor,1
 Non-Parent Node Connection,ZONE OFFICE WHOLEBUILDING - SM OFFICE 2 C  - STORY GROUND PSZ-AC MIXED AIR NODE,CONTROLLER:OUTDOORAIR,ZONE OFFICE WHOLEBUILDING - SM OFFICE 2 C  - STORY GROUND PSZ-AC OA SYSTEM CONTROLLER,Sensor,1
 Non-Parent Node Connection,ZONE OFFICE WHOLEBUILDING - SM OFFICE 2 C  - STORY GROUND PSZ-AC OUTDOOR AIR NODE,CONTROLLER:OUTDOORAIR,ZONE OFFICE WHOLEBUILDING - SM OFFICE 2 C  - STORY GROUND PSZ-AC OA SYSTEM CONTROLLER,Actuator,1
 Non-Parent Node Connection,ZONE OFFICE WHOLEBUILDING - SM OFFICE 2 C  - STORY GROUND PSZ-AC RELIEF AIR NODE,CONTROLLER:OUTDOORAIR,ZONE OFFICE WHOLEBUILDING - SM OFFICE 2 C  - STORY GROUND PSZ-AC OA SYSTEM CONTROLLER,Actuator,1
 Non-Parent Node Connection,ZONE OFFICE WHOLEBUILDING - SM OFFICE 2 C  - STORY GROUND PSZ-AC SUPPLY INLET NODE,CONTROLLER:OUTDOORAIR,ZONE OFFICE WHOLEBUILDING - SM OFFICE 2 C  - STORY GROUND PSZ-AC OA SYSTEM CONTROLLER,Sensor,1
 Non-Parent Node Connection,ZONE OFFICE WHOLEBUILDING - SM OFFICE 2 C END_A - STORY GROUND PSZ-AC MIXED AIR NODE,CONTROLLER:OUTDOORAIR,ZONE OFFICE WHOLEBUILDING - SM OFFICE 2 C END_A - STORY GROUND PSZ-AC OA SYSTEM CONTROLLER,Sensor,1
 Non-Parent Node Connection,ZONE OFFICE WHOLEBUILDING - SM OFFICE 2 C END_A - STORY GROUND PSZ-AC OUTDOOR AIR NODE,CONTROLLER:OUTDOORAIR,ZONE OFFICE WHOLEBUILDING - SM OFFICE 2 C END_A - STORY GROUND PSZ-AC OA SYSTEM CONTROLLER,Actuator,1
 Non-Parent Node Connection,ZONE OFFICE WHOLEBUILDING - SM OFFICE 2 C END_A - STORY GROUND PSZ-AC RELIEF AIR NODE,CONTROLLER:OUTDOORAIR,ZONE OFFICE WHOLEBUILDING - SM OFFICE 2 C END_A - STORY GROUND PSZ-AC OA SYSTEM CONTROLLER,Actuator,1
 Non-Parent Node Connection,ZONE OFFICE WHOLEBUILDING - SM OFFICE 2 C END_A - STORY GROUND PSZ-AC SUPPLY INLET NODE,CONTROLLER:OUTDOORAIR,ZONE OFFICE WHOLEBUILDING - SM OFFICE 2 C END_A - STORY GROUND PSZ-AC OA SYSTEM CONTROLLER,Sensor,1
 Non-Parent Node Connection,ZONE OFFICE WHOLEBUILDING - SM OFFICE 2 C END_B - STORY GROUND PSZ-AC MIXED AIR NODE,CONTROLLER:OUTDOORAIR,ZONE OFFICE WHOLEBUILDING - SM OFFICE 2 C END_B - STORY GROUND PSZ-AC OA SYSTEM CONTROLLER,Sensor,1
 Non-Parent Node Connection,ZONE OFFICE WHOLEBUILDING - SM OFFICE 2 C END_B - STORY GROUND PSZ-AC OUTDOOR AIR NODE,CONTROLLER:OUTDOORAIR,ZONE OFFICE WHOLEBUILDING - SM OFFICE 2 C END_B - STORY GROUND PSZ-AC OA SYSTEM CONTROLLER,Actuator,1
 Non-Parent Node Connection,ZONE OFFICE WHOLEBUILDING - SM OFFICE 2 C END_B - STORY GROUND PSZ-AC RELIEF AIR NODE,CONTROLLER:OUTDOORAIR,ZONE OFFICE WHOLEBUILDING - SM OFFICE 2 C END_B - STORY GROUND PSZ-AC OA SYSTEM CONTROLLER,Actuator,1
 Non-Parent Node Connection,ZONE OFFICE WHOLEBUILDING - SM OFFICE 2 C END_B - STORY GROUND PSZ-AC SUPPLY INLET NODE,CONTROLLER:OUTDOORAIR,ZONE OFFICE WHOLEBUILDING - SM OFFICE 2 C END_B - STORY GROUND PSZ-AC OA SYSTEM CONTROLLER,Sensor,1
 Non-Parent Node Connection,MAIN SERVICE WATER LOOP SUPPLY INLET NODE,PUMP:VARIABLESPEED,MAIN SERVICE WATER LOOP WATER MAINS PRESSURE DRIVEN,Inlet,1
 Non-Parent Node Connection,MAIN SERVICE WATER LOOP WATER MAINS PRESSURE DRIVEN OUTLET WATER NODE,PUMP:VARIABLESPEED,MAIN SERVICE WATER LOOP WATER MAINS PRESSURE DRIVEN,Outlet,1
 Non-Parent Node Connection,OFFICE SHARED SERVICE WATER LOOP SUPPLY INLET NODE,PUMP:CONSTANTSPEED,OFFICE SHARED SERVICE WATER LOOP CIRCULATOR PUMP,Inlet,1
 Non-Parent Node Connection,OFFICE SHARED SERVICE WATER LOOP CIRCULATOR PUMP OUTLET WATER NODE,PUMP:CONSTANTSPEED,OFFICE SHARED SERVICE WATER LOOP CIRCULATOR PUMP,Outlet,1
