Program Version,EnergyPlus, Version 23.1.0-87ed9199d4, YMD=2023.06.21 09:15
! <Version>, Version ID
 Version, 23.1
! <Timesteps per Hour>, #TimeSteps, Minutes per TimeStep {minutes}
 Timesteps per Hour,  1, 60
! <System Convergence Limits>, Minimum System TimeStep {minutes}, Max HVAC Iterations, Minimum Plant Iterations, Maximum Plant Iterations
 System Convergence Limits, 1, 20, 2, 8
! <Simulation Control>, Do Zone Sizing, Do System Sizing, Do Plant Sizing, Do Design Days, Do Weather Simulation, Do HVAC Sizing Simulation
 Simulation Control, Yes, Yes, Yes, No, Yes, No
! <Performance Precision Tradeoffs>, Use Coil Direct Simulation, Zone Radiant Exchange Algorithm, Override Mode, Number of Timestep In Hour, Force Euler Method, Minimum Number of Warmup Days, Force Suppress All Begin Environment Resets, Minimum System Timestep, MaxZoneTempDiff, MaxAllowedDelTemp
 Performance Precision Tradeoffs, No, ScriptF, Normal, 1, No, 1, No, 1.0, 0.300, 2.0000E-003
! <Output Reporting Tolerances>, Tolerance for Time Heating Setpoint Not Met, Tolerance for Zone Cooling Setpoint Not Met Time
 Output Reporting Tolerances, 0.556, 0.556, 
! <Site:GroundTemperature:BuildingSurface>,Jan{C},Feb{C},Mar{C},Apr{C},May{C},Jun{C},Jul{C},Aug{C},Sep{C},Oct{C},Nov{C},Dec{C}
 Site:GroundTemperature:BuildingSurface,  18.00,  18.00,  18.00,  18.00,  18.00,  18.00,  18.00,  18.00,  18.00,  18.00,  18.00,  18.00
! <Site:GroundTemperature:FCfactorMethod>,Jan{C},Feb{C},Mar{C},Apr{C},May{C},Jun{C},Jul{C},Aug{C},Sep{C},Oct{C},Nov{C},Dec{C}
 Site:GroundTemperature:FCfactorMethod,  -3.10, -17.70, -19.30, -17.60, -15.40, -10.30,   0.70,  10.60,  16.00,  16.90,  14.20,   6.70
! <Site:GroundTemperature:Shallow>,Jan{C},Feb{C},Mar{C},Apr{C},May{C},Jun{C},Jul{C},Aug{C},Sep{C},Oct{C},Nov{C},Dec{C}
 Site:GroundTemperature:Shallow,  13.00,  13.00,  13.00,  13.00,  13.00,  13.00,  13.00,  13.00,  13.00,  13.00,  13.00,  13.00
! <Site:GroundTemperature:Deep>,Jan{C},Feb{C},Mar{C},Apr{C},May{C},Jun{C},Jul{C},Aug{C},Sep{C},Oct{C},Nov{C},Dec{C}
 Site:GroundTemperature:Deep,  16.00,  16.00,  16.00,  16.00,  16.00,  16.00,  16.00,  16.00,  16.00,  16.00,  16.00,  16.00
! <Site:GroundReflectance>,Jan{dimensionless},Feb{dimensionless},Mar{dimensionless},Apr{dimensionless},May{dimensionless},Jun{dimensionless},Jul{dimensionless},Aug{dimensionless},Sep{dimensionless},Oct{dimensionless},Nov{dimensionless},Dec{dimensionless}
 Site:GroundReflectance,  0.20,  0.20,  0.20,  0.20,  0.20,  0.20,  0.20,  0.20,  0.20,  0.20,  0.20,  0.20
! <Site:GroundReflectance:SnowModifier>, Normal, Daylighting {dimensionless}
 Site:GroundReflectance:SnowModifier,   1.000,   1.000
! <Site:GroundReflectance:Snow>,Jan{dimensionless},Feb{dimensionless},Mar{dimensionless},Apr{dimensionless},May{dimensionless},Jun{dimensionless},Jul{dimensionless},Aug{dimensionless},Sep{dimensionless},Oct{dimensionless},Nov{dimensionless},Dec{dimensionless}
 Site:GroundReflectance:Snow,  0.20,  0.20,  0.20,  0.20,  0.20,  0.20,  0.20,  0.20,  0.20,  0.20,  0.20,  0.20
! <Site:GroundReflectance:Snow:Daylighting>,Jan{dimensionless},Feb{dimensionless},Mar{dimensionless},Apr{dimensionless},May{dimensionless},Jun{dimensionless},Jul{dimensionless},Aug{dimensionless},Sep{dimensionless},Oct{dimensionless},Nov{dimensionless},Dec{dimensionless}
 Site:GroundReflectance:Snow:Daylighting,  0.20,  0.20,  0.20,  0.20,  0.20,  0.20,  0.20,  0.20,  0.20,  0.20,  0.20,  0.20
! <Environment:Weather Station>,Wind Sensor Height Above Ground {m},Wind Speed Profile Exponent {},Wind Speed Profile Boundary Layer Thickness {m},Air Temperature Sensor Height Above Ground {m},Wind Speed Modifier Coefficient-Internal,Temperature Modifier Coefficient-Internal
Environment:Weather Station,10.000,0.140,270.000,1.500,1.586,9.750E-003
! <Site:Location>, Location Name, Latitude {N+/S- Deg}, Longitude {E+/W- Deg},  Time Zone Number {GMT+/-}, Elevation {m},  Standard Pressure at Elevation {Pa}, Standard RhoAir at Elevation
Site:Location,Kodiak Airport AK USA TMY3 WMO#=703500,57.75,-152.50,-9.00,5.00,101265,1.2036
! <Site Water Mains Temperature Information>,Calculation Method{},Water Mains Temperature Schedule Name{},Annual Average Outdoor Air Temperature{C},Maximum Difference In Monthly Average Outdoor Air Temperatures{deltaC},Fixed Default Water Mains Temperature{C}
Site Water Mains Temperature Information,Correlation,NA,-1.53,36.20,NA
! <Building Information>, Building Name,North Axis {deg},Terrain,  Loads Convergence Tolerance Value,Temperature Convergence Tolerance Value,  Solar Distribution,Maximum Number of Warmup Days,Minimum Number of Warmup Days
 Building Information,90.1-2016|MediumOffice,0.000,City,4.00000E-002,0.20000,FullInteriorAndExterior,25,6
! <Inside Convection Algorithm>, Algorithm {Simple | TARP | CeilingDiffuser | AdaptiveConvectionAlgorithm}
Inside Convection Algorithm,TARP
! <Outside Convection Algorithm>, Algorithm {SimpleCombined | TARP | MoWitt | DOE-2 | AdaptiveConvectionAlgorithm}
Outside Convection Algorithm,TARP
! <Sky Radiance Distribution>, Value {Anisotropic}
Sky Radiance Distribution,Anisotropic
! <Zone Air Solution Algorithm>, Algorithm {ThirdOrderBackwardDifference | AnalyticalSolution | EulerMethod}, Space Heat Balance Sizing, Space Heat Balance Simulation
 Zone Air Solution Algorithm, ThirdOrderBackwardDifference, No, No
! <Zone Air Carbon Dioxide Balance Simulation>, Simulation {Yes/No}, Carbon Dioxide Concentration
 Zone Air Carbon Dioxide Balance Simulation, No,N/A
! <Zone Air Generic Contaminant Balance Simulation>, Simulation {Yes/No}, Generic Contaminant Concentration
 Zone Air Generic Contaminant Balance Simulation, No,N/A
! <Zone Air Mass Flow Balance Simulation>, Enforce Mass Balance, Adjust Zone Mixing and Return {AdjustMixingOnly | AdjustReturnOnly | AdjustMixingThenReturn | AdjustReturnThenMixing | None}, Adjust Zone Infiltration {AddInfiltration | AdjustInfiltration | None}, Infiltration Zones {MixingSourceZonesOnly | AllZones}
 Zone Air Mass Flow Balance Simulation, No,N/A,N/A,N/A
! <HVACSystemRootFindingAlgorithm>, Value {RegulaFalsi | Bisection | BisectionThenRegulaFalsi | RegulaFalsiThenBisection}
 HVACSystemRootFindingAlgorithm, RegulaFalsi
! <Environment:Site Atmospheric Variation>,Wind Speed Profile Exponent {},Wind Speed Profile Boundary Layer Thickness {m},Air Temperature Gradient Coefficient {K/m}
Environment:Site Atmospheric Variation,0.330,460.000,6.500000E-003
! <Surface Geometry>,Starting Corner,Vertex Input Direction,Coordinate System,Daylight Reference Point Coordinate System,Rectangular (Simple) Surface Coordinate System
 Surface Geometry,UpperLeftCorner,Counterclockwise,RelativeCoordinateSystem,RelativeCoordinateSystem,RelativeToZoneOrigin
! <Surface Heat Transfer Algorithm>, Value {CTF - ConductionTransferFunction | EMPD - MoisturePenetrationDepthConductionTransferFunction | CondFD - ConductionFiniteDifference | HAMT - CombinedHeatAndMoistureFiniteElement} - Description,Inside Surface Max Temperature Limit{C}, Surface Convection Coefficient Lower Limit {W/m2-K}, Surface Convection Coefficient Upper Limit {W/m2-K}
Surface Heat Transfer Algorithm, CTF - ConductionTransferFunction,200,0.10,1000.0
! <Shading Summary>, Number of Fixed Detached Shades, Number of Building Detached Shades, Number of Attached Shades
 Shading Summary,0,0,0
! <Zone Summary>, Number of Zones, Number of Zone Surfaces, Number of SubSurfaces
 Zone Summary,18,150,24
! <Zone Information>,Zone Name,North Axis {deg},Origin X-Coordinate {m},Origin Y-Coordinate {m},Origin Z-Coordinate {m},Centroid X-Coordinate {m},Centroid Y-Coordinate {m},Centroid Z-Coordinate {m},Type,Zone Multiplier,Zone List Multiplier,Minimum X {m},Maximum X {m},Minimum Y {m},Maximum Y {m},Minimum Z {m},Maximum Z {m},Ceiling Height {m},Volume {m3},Zone Inside Convection Algorithm {Simple-Detailed-CeilingDiffuser-TrombeWall},Zone Outside Convection Algorithm {Simple-Detailed-Tarp-MoWitt-DOE-2-BLAST}, Floor Area {m2},Exterior Gross Wall Area {m2},Exterior Net Wall Area {m2},Exterior Window Area {m2}, Number of Surfaces, Number of SubSurfaces, Number of Shading SubSurfaces,  Part of Total Building Area
 Zone Information, ZONE OFFICE WHOLEBUILDING - MD OFFICE A  - STORY GROUND,0.0,-7.47,-8.03,0.00,-1.23E-014,-5.74,3.96,1,1,1,-7.47,7.47,-8.03,-3.45,0.00,7.92,7.92,541.07,TARP,TARP,68.27,118.34,100.59,17.75,6,1,0,Yes
 Zone Information, ZONE OFFICE WHOLEBUILDING - MD OFFICE A  - STORY TOP,0.0,-7.47,-8.03,7.92,-1.24E-014,-5.74,11.89,1,1,1,-7.47,7.47,-8.03,-3.45,7.92,15.85,7.92,541.07,TARP,TARP,68.27,118.34,100.59,17.75,6,1,0,Yes
 Zone Information, ZONE OFFICE WHOLEBUILDING - MD OFFICE A END_A - STORY GROUND,0.0,-12.04,-8.03,0.00,-9.75,-5.74,3.96,1,1,1,-12.04,-7.47,-8.03,-3.45,0.00,7.92,7.92,165.65,TARP,TARP,20.90,72.46,61.59,10.87,6,2,0,Yes
 Zone Information, ZONE OFFICE WHOLEBUILDING - MD OFFICE A END_A - STORY TOP,0.0,-12.04,-8.03,7.92,-9.75,-5.74,11.89,1,1,1,-12.04,-7.47,-8.03,-3.45,7.92,15.85,7.92,165.65,TARP,TARP,20.90,72.46,61.59,10.87,6,2,0,Yes
 Zone Information, ZONE OFFICE WHOLEBUILDING - MD OFFICE A END_B - STORY GROUND,0.0,7.47,-8.03,0.00,9.75,-5.74,3.96,1,1,1,7.47,12.04,-8.03,-3.45,0.00,7.92,7.92,165.65,TARP,TARP,20.90,72.46,61.59,10.87,6,2,0,Yes
 Zone Information, ZONE OFFICE WHOLEBUILDING - MD OFFICE A END_B - STORY TOP,0.0,7.47,-8.03,7.92,9.75,-5.74,11.89,1,1,1,7.47,12.04,-8.03,-3.45,7.92,15.85,7.92,165.65,TARP,TARP,20.90,72.46,61.59,10.87,6,2,0,Yes
 Zone Information, ZONE OFFICE WHOLEBUILDING - MD OFFICE B  - STORY GROUND,0.0,-7.47,-3.45,0.00,-1.33E-014,5.38E-016,3.96,1,1,1,-7.47,7.47,-3.45,3.45,0.00,7.92,7.92,817.46,TARP,TARP,103.15,0.00,0.00,0.00,6,0,0,Yes
 Zone Information, ZONE OFFICE WHOLEBUILDING - MD OFFICE B  - STORY TOP,0.0,-7.47,-3.45,7.92,-1.32E-014,6.41E-016,11.89,1,1,1,-7.47,7.47,-3.45,3.45,7.92,15.85,7.92,817.46,TARP,TARP,103.15,0.00,0.00,0.00,6,0,0,Yes
 Zone Information, ZONE OFFICE WHOLEBUILDING - MD OFFICE B END_A - STORY GROUND,0.0,-12.04,-3.45,0.00,-9.75,7.63E-016,3.96,1,1,1,-12.04,-7.47,-3.45,3.45,0.00,7.92,7.92,250.27,TARP,TARP,31.58,54.74,46.53,8.21,6,1,0,Yes
 Zone Information, ZONE OFFICE WHOLEBUILDING - MD OFFICE B END_A - STORY TOP,0.0,-12.04,-3.45,7.92,-9.75,7.36E-016,11.89,1,1,1,-12.04,-7.47,-3.45,3.45,7.92,15.85,7.92,250.27,TARP,TARP,31.58,54.74,46.53,8.21,6,1,0,Yes
 Zone Information, ZONE OFFICE WHOLEBUILDING - MD OFFICE B END_B - STORY GROUND,0.0,7.47,-3.45,0.00,9.75,6.49E-016,3.96,1,1,1,7.47,12.04,-3.45,3.45,0.00,7.92,7.92,250.27,TARP,TARP,31.58,54.74,46.53,8.21,6,1,0,Yes
 Zone Information, ZONE OFFICE WHOLEBUILDING - MD OFFICE B END_B - STORY TOP,0.0,7.47,-3.45,7.92,9.75,7.63E-016,11.89,1,1,1,7.47,12.04,-3.45,3.45,7.92,15.85,7.92,250.27,TARP,TARP,31.58,54.74,46.53,8.21,6,1,0,Yes
 Zone Information, ZONE OFFICE WHOLEBUILDING - MD OFFICE C  - STORY GROUND,0.0,-7.47,3.45,0.00,-1.23E-014,5.74,3.96,1,1,1,-7.47,7.47,3.45,8.03,0.00,7.92,7.92,541.07,TARP,TARP,68.27,118.34,100.59,17.75,6,1,0,Yes
 Zone Information, ZONE OFFICE WHOLEBUILDING - MD OFFICE C  - STORY TOP,0.0,-7.47,3.45,7.92,-1.23E-014,5.74,11.89,1,1,1,-7.47,7.47,3.45,8.03,7.92,15.85,7.92,541.07,TARP,TARP,68.27,118.34,100.59,17.75,6,1,0,Yes
 Zone Information, ZONE OFFICE WHOLEBUILDING - MD OFFICE C END_A - STORY GROUND,0.0,-12.04,3.45,0.00,-9.75,5.74,3.96,1,1,1,-12.04,-7.47,3.45,8.03,0.00,7.92,7.92,165.65,TARP,TARP,20.90,72.46,61.59,10.87,6,2,0,Yes
 Zone Information, ZONE OFFICE WHOLEBUILDING - MD OFFICE C END_A - STORY TOP,0.0,-12.04,3.45,7.92,-9.75,5.74,11.89,1,1,1,-12.04,-7.47,3.45,8.03,7.92,15.85,7.92,165.65,TARP,TARP,20.90,72.46,61.59,10.87,6,2,0,Yes
 Zone Information, ZONE OFFICE WHOLEBUILDING - MD OFFICE C END_B - STORY GROUND,0.0,7.47,3.45,0.00,9.75,5.74,3.96,1,1,1,7.47,12.04,3.45,8.03,0.00,7.92,7.92,165.65,TARP,TARP,20.90,72.46,61.59,10.87,6,2,0,Yes
 Zone Information, ZONE OFFICE WHOLEBUILDING - MD OFFICE C END_B - STORY TOP,0.0,7.47,3.45,7.92,9.75,5.74,11.89,1,1,1,7.47,12.04,3.45,8.03,7.92,15.85,7.92,165.65,TARP,TARP,20.90,72.46,61.59,10.87,6,2,0,Yes
! <Zone Internal Gains Nominal>,Zone Name, Floor Area {m2},# Occupants,Area per Occupant {m2/person},Occupant per Area {person/m2},Interior Lighting {W/m2},Electric Load {W/m2},Gas Load {W/m2},Other Load {W/m2},Hot Water Eq {W/m2},Steam Equipment {W/m2},Sum Loads per Area {W/m2},Outdoor Controlled Baseboard Heat
 Zone Internal Gains Nominal, ZONE OFFICE WHOLEBUILDING - MD OFFICE A  - STORY GROUND,68.27,25.0,2.731,0.366,9.670,25.073,0.000,0.000,0.000,0.000,34.743,No
 Zone Internal Gains Nominal, ZONE OFFICE WHOLEBUILDING - MD OFFICE A  - STORY TOP,68.27,25.0,2.731,0.366,9.670,25.073,0.000,0.000,0.000,0.000,34.743,No
 Zone Internal Gains Nominal, ZONE OFFICE WHOLEBUILDING - MD OFFICE A END_A - STORY GROUND,20.90,25.0,0.836,1.196,9.670,25.073,0.000,0.000,0.000,0.000,34.743,No
 Zone Internal Gains Nominal, ZONE OFFICE WHOLEBUILDING - MD OFFICE A END_A - STORY TOP,20.90,25.0,0.836,1.196,9.670,25.073,0.000,0.000,0.000,0.000,34.743,No
 Zone Internal Gains Nominal, ZONE OFFICE WHOLEBUILDING - MD OFFICE A END_B - STORY GROUND,20.90,25.0,0.836,1.196,9.670,25.073,0.000,0.000,0.000,0.000,34.743,No
 Zone Internal Gains Nominal, ZONE OFFICE WHOLEBUILDING - MD OFFICE A END_B - STORY TOP,20.90,25.0,0.836,1.196,9.670,25.073,0.000,0.000,0.000,0.000,34.743,No
 Zone Internal Gains Nominal, ZONE OFFICE WHOLEBUILDING - MD OFFICE B  - STORY GROUND,103.15,25.0,4.126,0.242,9.670,25.073,0.000,0.000,0.000,0.000,34.743,No
 Zone Internal Gains Nominal, ZONE OFFICE WHOLEBUILDING - MD OFFICE B  - STORY TOP,103.15,25.0,4.126,0.242,9.670,25.073,0.000,0.000,0.000,0.000,34.743,No
 Zone Internal Gains Nominal, ZONE OFFICE WHOLEBUILDING - MD OFFICE B END_A - STORY GROUND,31.58,25.0,1.263,0.792,9.670,25.073,0.000,0.000,0.000,0.000,34.743,No
 Zone Internal Gains Nominal, ZONE OFFICE WHOLEBUILDING - MD OFFICE B END_A - STORY TOP,31.58,25.0,1.263,0.792,9.670,25.073,0.000,0.000,0.000,0.000,34.743,No
 Zone Internal Gains Nominal, ZONE OFFICE WHOLEBUILDING - MD OFFICE B END_B - STORY GROUND,31.58,25.0,1.263,0.792,9.670,25.073,0.000,0.000,0.000,0.000,34.743,No
 Zone Internal Gains Nominal, ZONE OFFICE WHOLEBUILDING - MD OFFICE B END_B - STORY TOP,31.58,25.0,1.263,0.792,9.670,25.073,0.000,0.000,0.000,0.000,34.743,No
 Zone Internal Gains Nominal, ZONE OFFICE WHOLEBUILDING - MD OFFICE C  - STORY GROUND,68.27,25.0,2.731,0.366,9.670,25.073,0.000,0.000,0.000,0.000,34.743,No
 Zone Internal Gains Nominal, ZONE OFFICE WHOLEBUILDING - MD OFFICE C  - STORY TOP,68.27,25.0,2.731,0.366,9.670,25.073,0.000,0.000,0.000,0.000,34.743,No
 Zone Internal Gains Nominal, ZONE OFFICE WHOLEBUILDING - MD OFFICE C END_A - STORY GROUND,20.90,25.0,0.836,1.196,9.670,25.073,0.000,0.000,0.000,0.000,34.743,No
 Zone Internal Gains Nominal, ZONE OFFICE WHOLEBUILDING - MD OFFICE C END_A - STORY TOP,20.90,25.0,0.836,1.196,9.670,25.073,0.000,0.000,0.000,0.000,34.743,No
 Zone Internal Gains Nominal, ZONE OFFICE WHOLEBUILDING - MD OFFICE C END_B - STORY GROUND,20.90,25.0,0.836,1.196,9.670,25.073,0.000,0.000,0.000,0.000,34.743,No
 Zone Internal Gains Nominal, ZONE OFFICE WHOLEBUILDING - MD OFFICE C END_B - STORY TOP,20.90,25.0,0.836,1.196,9.670,25.073,0.000,0.000,0.000,0.000,34.743,No
! <People Internal Gains Nominal>,Name,Schedule Name,Zone Name,Zone Floor Area {m2},# Zone Occupants,Number of People {},People/Floor Area {person/m2},Floor Area per person {m2/person},Fraction Radiant,Fraction Convected,Sensible Fraction Calculation,Activity level,ASHRAE 55 Warnings,Carbon Dioxide Generation Rate,Nominal Minimum Number of People,Nominal Maximum Number of People,MRT Calculation Type,Work Efficiency, Clothing Insulation Calculation Method,Clothing Insulation Calculation Method Schedule,Clothing,Air Velocity,Fanger Calculation,Pierce Calculation,KSU Calculation,Cooling Effect Calculation,Ankle Draft Calculation
 People Internal Gains Nominal, OFFICE WHOLEBUILDING - MD OFFICE B END_A - STORY GROUND OFFICE WHOLEBUILDING - MD OFFICE PEOPLE,OFFICEMEDIUM BLDG_OCC_SCH,ZONE OFFICE WHOLEBUILDING - MD OFFICE B END_A - STORY GROUND,31.58,25.0,25.0,0.792,1.263,0.300,0.700,AutoCalculate,OFFICEMEDIUM ACTIVITY_SCH,Yes,3.8200E-008,0,25,Zone Averaged,WORK EFFICIENCY SCHEDULE,Clothing Insulation Schedule,N/A,CLOTHING SCHEDULE,AIR VELOCITY SCHEDULE,Yes,No,No,No,No
 People Internal Gains Nominal, OFFICE WHOLEBUILDING - MD OFFICE A  - STORY GROUND OFFICE WHOLEBUILDING - MD OFFICE PEOPLE,OFFICEMEDIUM BLDG_OCC_SCH,ZONE OFFICE WHOLEBUILDING - MD OFFICE A  - STORY GROUND,68.27,25.0,25.0,0.366,2.731,0.300,0.700,AutoCalculate,OFFICEMEDIUM ACTIVITY_SCH,Yes,3.8200E-008,0,25,Zone Averaged,WORK EFFICIENCY SCHEDULE,Clothing Insulation Schedule,N/A,CLOTHING SCHEDULE,AIR VELOCITY SCHEDULE,Yes,No,No,No,No
 People Internal Gains Nominal, OFFICE WHOLEBUILDING - MD OFFICE C END_A - STORY GROUND OFFICE WHOLEBUILDING - MD OFFICE PEOPLE,OFFICEMEDIUM BLDG_OCC_SCH,ZONE OFFICE WHOLEBUILDING - MD OFFICE C END_A - STORY GROUND,20.90,25.0,25.0,1.196,0.836,0.300,0.700,AutoCalculate,OFFICEMEDIUM ACTIVITY_SCH,Yes,3.8200E-008,0,25,Zone Averaged,WORK EFFICIENCY SCHEDULE,Clothing Insulation Schedule,N/A,CLOTHING SCHEDULE,AIR VELOCITY SCHEDULE,Yes,No,No,No,No
 People Internal Gains Nominal, OFFICE WHOLEBUILDING - MD OFFICE B  - STORY GROUND OFFICE WHOLEBUILDING - MD OFFICE PEOPLE,OFFICEMEDIUM BLDG_OCC_SCH,ZONE OFFICE WHOLEBUILDING - MD OFFICE B  - STORY GROUND,103.15,25.0,25.0,0.242,4.126,0.300,0.700,AutoCalculate,OFFICEMEDIUM ACTIVITY_SCH,Yes,3.8200E-008,0,25,Zone Averaged,WORK EFFICIENCY SCHEDULE,Clothing Insulation Schedule,N/A,CLOTHING SCHEDULE,AIR VELOCITY SCHEDULE,Yes,No,No,No,No
 People Internal Gains Nominal, OFFICE WHOLEBUILDING - MD OFFICE C  - STORY GROUND OFFICE WHOLEBUILDING - MD OFFICE PEOPLE,OFFICEMEDIUM BLDG_OCC_SCH,ZONE OFFICE WHOLEBUILDING - MD OFFICE C  - STORY GROUND,68.27,25.0,25.0,0.366,2.731,0.300,0.700,AutoCalculate,OFFICEMEDIUM ACTIVITY_SCH,Yes,3.8200E-008,0,25,Zone Averaged,WORK EFFICIENCY SCHEDULE,Clothing Insulation Schedule,N/A,CLOTHING SCHEDULE,AIR VELOCITY SCHEDULE,Yes,No,No,No,No
 People Internal Gains Nominal, OFFICE WHOLEBUILDING - MD OFFICE B END_B - STORY GROUND OFFICE WHOLEBUILDING - MD OFFICE PEOPLE,OFFICEMEDIUM BLDG_OCC_SCH,ZONE OFFICE WHOLEBUILDING - MD OFFICE B END_B - STORY GROUND,31.58,25.0,25.0,0.792,1.263,0.300,0.700,AutoCalculate,OFFICEMEDIUM ACTIVITY_SCH,Yes,3.8200E-008,0,25,Zone Averaged,WORK EFFICIENCY SCHEDULE,Clothing Insulation Schedule,N/A,CLOTHING SCHEDULE,AIR VELOCITY SCHEDULE,Yes,No,No,No,No
 People Internal Gains Nominal, OFFICE WHOLEBUILDING - MD OFFICE C END_B - STORY GROUND OFFICE WHOLEBUILDING - MD OFFICE PEOPLE,OFFICEMEDIUM BLDG_OCC_SCH,ZONE OFFICE WHOLEBUILDING - MD OFFICE C END_B - STORY GROUND,20.90,25.0,25.0,1.196,0.836,0.300,0.700,AutoCalculate,OFFICEMEDIUM ACTIVITY_SCH,Yes,3.8200E-008,0,25,Zone Averaged,WORK EFFICIENCY SCHEDULE,Clothing Insulation Schedule,N/A,CLOTHING SCHEDULE,AIR VELOCITY SCHEDULE,Yes,No,No,No,No
 People Internal Gains Nominal, OFFICE WHOLEBUILDING - MD OFFICE B END_A - STORY TOP OFFICE WHOLEBUILDING - MD OFFICE PEOPLE,OFFICEMEDIUM BLDG_OCC_SCH,ZONE OFFICE WHOLEBUILDING - MD OFFICE B END_A - STORY TOP,31.58,25.0,25.0,0.792,1.263,0.300,0.700,AutoCalculate,OFFICEMEDIUM ACTIVITY_SCH,Yes,3.8200E-008,0,25,Zone Averaged,WORK EFFICIENCY SCHEDULE,Clothing Insulation Schedule,N/A,CLOTHING SCHEDULE,AIR VELOCITY SCHEDULE,Yes,No,No,No,No
 People Internal Gains Nominal, OFFICE WHOLEBUILDING - MD OFFICE A END_A - STORY TOP OFFICE WHOLEBUILDING - MD OFFICE PEOPLE,OFFICEMEDIUM BLDG_OCC_SCH,ZONE OFFICE WHOLEBUILDING - MD OFFICE A END_A - STORY TOP,20.90,25.0,25.0,1.196,0.836,0.300,0.700,AutoCalculate,OFFICEMEDIUM ACTIVITY_SCH,Yes,3.8200E-008,0,25,Zone Averaged,WORK EFFICIENCY SCHEDULE,Clothing Insulation Schedule,N/A,CLOTHING SCHEDULE,AIR VELOCITY SCHEDULE,Yes,No,No,No,No
 People Internal Gains Nominal, OFFICE WHOLEBUILDING - MD OFFICE A  - STORY TOP OFFICE WHOLEBUILDING - MD OFFICE PEOPLE,OFFICEMEDIUM BLDG_OCC_SCH,ZONE OFFICE WHOLEBUILDING - MD OFFICE A  - STORY TOP,68.27,25.0,25.0,0.366,2.731,0.300,0.700,AutoCalculate,OFFICEMEDIUM ACTIVITY_SCH,Yes,3.8200E-008,0,25,Zone Averaged,WORK EFFICIENCY SCHEDULE,Clothing Insulation Schedule,N/A,CLOTHING SCHEDULE,AIR VELOCITY SCHEDULE,Yes,No,No,No,No
 People Internal Gains Nominal, OFFICE WHOLEBUILDING - MD OFFICE A END_B - STORY GROUND OFFICE WHOLEBUILDING - MD OFFICE PEOPLE,OFFICEMEDIUM BLDG_OCC_SCH,ZONE OFFICE WHOLEBUILDING - MD OFFICE A END_B - STORY GROUND,20.90,25.0,25.0,1.196,0.836,0.300,0.700,AutoCalculate,OFFICEMEDIUM ACTIVITY_SCH,Yes,3.8200E-008,0,25,Zone Averaged,WORK EFFICIENCY SCHEDULE,Clothing Insulation Schedule,N/A,CLOTHING SCHEDULE,AIR VELOCITY SCHEDULE,Yes,No,No,No,No
 People Internal Gains Nominal, OFFICE WHOLEBUILDING - MD OFFICE C END_A - STORY TOP OFFICE WHOLEBUILDING - MD OFFICE PEOPLE,OFFICEMEDIUM BLDG_OCC_SCH,ZONE OFFICE WHOLEBUILDING - MD OFFICE C END_A - STORY TOP,20.90,25.0,25.0,1.196,0.836,0.300,0.700,AutoCalculate,OFFICEMEDIUM ACTIVITY_SCH,Yes,3.8200E-008,0,25,Zone Averaged,WORK EFFICIENCY SCHEDULE,Clothing Insulation Schedule,N/A,CLOTHING SCHEDULE,AIR VELOCITY SCHEDULE,Yes,No,No,No,No
 People Internal Gains Nominal, OFFICE WHOLEBUILDING - MD OFFICE B  - STORY TOP OFFICE WHOLEBUILDING - MD OFFICE PEOPLE,OFFICEMEDIUM BLDG_OCC_SCH,ZONE OFFICE WHOLEBUILDING - MD OFFICE B  - STORY TOP,103.15,25.0,25.0,0.242,4.126,0.300,0.700,AutoCalculate,OFFICEMEDIUM ACTIVITY_SCH,Yes,3.8200E-008,0,25,Zone Averaged,WORK EFFICIENCY SCHEDULE,Clothing Insulation Schedule,N/A,CLOTHING SCHEDULE,AIR VELOCITY SCHEDULE,Yes,No,No,No,No
 People Internal Gains Nominal, OFFICE WHOLEBUILDING - MD OFFICE C  - STORY TOP OFFICE WHOLEBUILDING - MD OFFICE PEOPLE,OFFICEMEDIUM BLDG_OCC_SCH,ZONE OFFICE WHOLEBUILDING - MD OFFICE C  - STORY TOP,68.27,25.0,25.0,0.366,2.731,0.300,0.700,AutoCalculate,OFFICEMEDIUM ACTIVITY_SCH,Yes,3.8200E-008,0,25,Zone Averaged,WORK EFFICIENCY SCHEDULE,Clothing Insulation Schedule,N/A,CLOTHING SCHEDULE,AIR VELOCITY SCHEDULE,Yes,No,No,No,No
 People Internal Gains Nominal, OFFICE WHOLEBUILDING - MD OFFICE A END_B - STORY TOP OFFICE WHOLEBUILDING - MD OFFICE PEOPLE,OFFICEMEDIUM BLDG_OCC_SCH,ZONE OFFICE WHOLEBUILDING - MD OFFICE A END_B - STORY TOP,20.90,25.0,25.0,1.196,0.836,0.300,0.700,AutoCalculate,OFFICEMEDIUM ACTIVITY_SCH,Yes,3.8200E-008,0,25,Zone Averaged,WORK EFFICIENCY SCHEDULE,Clothing Insulation Schedule,N/A,CLOTHING SCHEDULE,AIR VELOCITY SCHEDULE,Yes,No,No,No,No
 People Internal Gains Nominal, OFFICE WHOLEBUILDING - MD OFFICE B END_B - STORY TOP OFFICE WHOLEBUILDING - MD OFFICE PEOPLE,OFFICEMEDIUM BLDG_OCC_SCH,ZONE OFFICE WHOLEBUILDING - MD OFFICE B END_B - STORY TOP,31.58,25.0,25.0,0.792,1.263,0.300,0.700,AutoCalculate,OFFICEMEDIUM ACTIVITY_SCH,Yes,3.8200E-008,0,25,Zone Averaged,WORK EFFICIENCY SCHEDULE,Clothing Insulation Schedule,N/A,CLOTHING SCHEDULE,AIR VELOCITY SCHEDULE,Yes,No,No,No,No
 People Internal Gains Nominal, OFFICE WHOLEBUILDING - MD OFFICE A END_A - STORY GROUND OFFICE WHOLEBUILDING - MD OFFICE PEOPLE,OFFICEMEDIUM BLDG_OCC_SCH,ZONE OFFICE WHOLEBUILDING - MD OFFICE A END_A - STORY GROUND,20.90,25.0,25.0,1.196,0.836,0.300,0.700,AutoCalculate,OFFICEMEDIUM ACTIVITY_SCH,Yes,3.8200E-008,0,25,Zone Averaged,WORK EFFICIENCY SCHEDULE,Clothing Insulation Schedule,N/A,CLOTHING SCHEDULE,AIR VELOCITY SCHEDULE,Yes,No,No,No,No
 People Internal Gains Nominal, OFFICE WHOLEBUILDING - MD OFFICE C END_B - STORY TOP OFFICE WHOLEBUILDING - MD OFFICE PEOPLE,OFFICEMEDIUM BLDG_OCC_SCH,ZONE OFFICE WHOLEBUILDING - MD OFFICE C END_B - STORY TOP,20.90,25.0,25.0,1.196,0.836,0.300,0.700,AutoCalculate,OFFICEMEDIUM ACTIVITY_SCH,Yes,3.8200E-008,0,25,Zone Averaged,WORK EFFICIENCY SCHEDULE,Clothing Insulation Schedule,N/A,CLOTHING SCHEDULE,AIR VELOCITY SCHEDULE,Yes,No,No,No,No
! <Lights Internal Gains Nominal>,Name,Schedule Name,Zone Name,Zone Floor Area {m2},# Zone Occupants,Lighting Level {W},Lights/Floor Area {W/m2},Lights per person {W/person},Fraction Return Air,Fraction Radiant,Fraction Short Wave,Fraction Convected,Fraction Replaceable,End-Use Category,Nominal Minimum Lighting Level {W},Nominal Maximum Lighting Level {W}
 Lights Internal Gains Nominal, OFFICE WHOLEBUILDING - MD OFFICE B END_A - STORY GROUND OFFICE WHOLEBUILDING - MD OFFICE LIGHTS,OFFICEMEDIUM BLDG_LIGHT_SCH_2013,ZONE OFFICE WHOLEBUILDING - MD OFFICE B END_A - STORY GROUND,31.58,25.0,305.390,9.670,12.216,0.000,0.700,0.200,0.100,1.000,General,0.000,305.390
 Lights Internal Gains Nominal, OFFICE WHOLEBUILDING - MD OFFICE A  - STORY GROUND OFFICE WHOLEBUILDING - MD OFFICE LIGHTS,OFFICEMEDIUM BLDG_LIGHT_SCH_2013,ZONE OFFICE WHOLEBUILDING - MD OFFICE A  - STORY GROUND,68.27,25.0,660.218,9.670,26.409,0.000,0.700,0.200,0.100,1.000,General,0.000,660.218
 Lights Internal Gains Nominal, OFFICE WHOLEBUILDING - MD OFFICE C END_A - STORY GROUND OFFICE WHOLEBUILDING - MD OFFICE LIGHTS,OFFICEMEDIUM BLDG_LIGHT_SCH_2013,ZONE OFFICE WHOLEBUILDING - MD OFFICE C END_A - STORY GROUND,20.90,25.0,202.134,9.670,8.085,0.000,0.700,0.200,0.100,1.000,General,0.000,202.134
 Lights Internal Gains Nominal, OFFICE WHOLEBUILDING - MD OFFICE B  - STORY GROUND OFFICE WHOLEBUILDING - MD OFFICE LIGHTS,OFFICEMEDIUM BLDG_LIGHT_SCH_2013,ZONE OFFICE WHOLEBUILDING - MD OFFICE B  - STORY GROUND,103.15,25.0,997.478,9.670,39.899,0.000,0.700,0.200,0.100,1.000,General,0.000,997.478
 Lights Internal Gains Nominal, OFFICE WHOLEBUILDING - MD OFFICE C  - STORY GROUND OFFICE WHOLEBUILDING - MD OFFICE LIGHTS,OFFICEMEDIUM BLDG_LIGHT_SCH_2013,ZONE OFFICE WHOLEBUILDING - MD OFFICE C  - STORY GROUND,68.27,25.0,660.218,9.670,26.409,0.000,0.700,0.200,0.100,1.000,General,0.000,660.218
 Lights Internal Gains Nominal, OFFICE WHOLEBUILDING - MD OFFICE B END_B - STORY GROUND OFFICE WHOLEBUILDING - MD OFFICE LIGHTS,OFFICEMEDIUM BLDG_LIGHT_SCH_2013,ZONE OFFICE WHOLEBUILDING - MD OFFICE B END_B - STORY GROUND,31.58,25.0,305.390,9.670,12.216,0.000,0.700,0.200,0.100,1.000,General,0.000,305.390
 Lights Internal Gains Nominal, OFFICE WHOLEBUILDING - MD OFFICE C END_B - STORY GROUND OFFICE WHOLEBUILDING - MD OFFICE LIGHTS,OFFICEMEDIUM BLDG_LIGHT_SCH_2013,ZONE OFFICE WHOLEBUILDING - MD OFFICE C END_B - STORY GROUND,20.90,25.0,202.134,9.670,8.085,0.000,0.700,0.200,0.100,1.000,General,0.000,202.134
 Lights Internal Gains Nominal, OFFICE WHOLEBUILDING - MD OFFICE B END_A - STORY TOP OFFICE WHOLEBUILDING - MD OFFICE LIGHTS,OFFICEMEDIUM BLDG_LIGHT_SCH_2013,ZONE OFFICE WHOLEBUILDING - MD OFFICE B END_A - STORY TOP,31.58,25.0,305.390,9.670,12.216,0.000,0.700,0.200,0.100,1.000,General,0.000,305.390
 Lights Internal Gains Nominal, OFFICE WHOLEBUILDING - MD OFFICE A END_A - STORY TOP OFFICE WHOLEBUILDING - MD OFFICE LIGHTS,OFFICEMEDIUM BLDG_LIGHT_SCH_2013,ZONE OFFICE WHOLEBUILDING - MD OFFICE A END_A - STORY TOP,20.90,25.0,202.134,9.670,8.085,0.000,0.700,0.200,0.100,1.000,General,0.000,202.134
 Lights Internal Gains Nominal, OFFICE WHOLEBUILDING - MD OFFICE A  - STORY TOP OFFICE WHOLEBUILDING - MD OFFICE LIGHTS,OFFICEMEDIUM BLDG_LIGHT_SCH_2013,ZONE OFFICE WHOLEBUILDING - MD OFFICE A  - STORY TOP,68.27,25.0,660.218,9.670,26.409,0.000,0.700,0.200,0.100,1.000,General,0.000,660.218
 Lights Internal Gains Nominal, OFFICE WHOLEBUILDING - MD OFFICE A END_B - STORY GROUND OFFICE WHOLEBUILDING - MD OFFICE LIGHTS,OFFICEMEDIUM BLDG_LIGHT_SCH_2013,ZONE OFFICE WHOLEBUILDING - MD OFFICE A END_B - STORY GROUND,20.90,25.0,202.134,9.670,8.085,0.000,0.700,0.200,0.100,1.000,General,0.000,202.134
 Lights Internal Gains Nominal, OFFICE WHOLEBUILDING - MD OFFICE C END_A - STORY TOP OFFICE WHOLEBUILDING - MD OFFICE LIGHTS,OFFICEMEDIUM BLDG_LIGHT_SCH_2013,ZONE OFFICE WHOLEBUILDING - MD OFFICE C END_A - STORY TOP,20.90,25.0,202.134,9.670,8.085,0.000,0.700,0.200,0.100,1.000,General,0.000,202.134
 Lights Internal Gains Nominal, OFFICE WHOLEBUILDING - MD OFFICE B  - STORY TOP OFFICE WHOLEBUILDING - MD OFFICE LIGHTS,OFFICEMEDIUM BLDG_LIGHT_SCH_2013,ZONE OFFICE WHOLEBUILDING - MD OFFICE B  - STORY TOP,103.15,25.0,997.478,9.670,39.899,0.000,0.700,0.200,0.100,1.000,General,0.000,997.478
 Lights Internal Gains Nominal, OFFICE WHOLEBUILDING - MD OFFICE C  - STORY TOP OFFICE WHOLEBUILDING - MD OFFICE LIGHTS,OFFICEMEDIUM BLDG_LIGHT_SCH_2013,ZONE OFFICE WHOLEBUILDING - MD OFFICE C  - STORY TOP,68.27,25.0,660.218,9.670,26.409,0.000,0.700,0.200,0.100,1.000,General,0.000,660.218
 Lights Internal Gains Nominal, OFFICE WHOLEBUILDING - MD OFFICE A END_B - STORY TOP OFFICE WHOLEBUILDING - MD OFFICE LIGHTS,OFFICEMEDIUM BLDG_LIGHT_SCH_2013,ZONE OFFICE WHOLEBUILDING - MD OFFICE A END_B - STORY TOP,20.90,25.0,202.134,9.670,8.085,0.000,0.700,0.200,0.100,1.000,General,0.000,202.134
 Lights Internal Gains Nominal, OFFICE WHOLEBUILDING - MD OFFICE B END_B - STORY TOP OFFICE WHOLEBUILDING - MD OFFICE LIGHTS,OFFICEMEDIUM BLDG_LIGHT_SCH_2013,ZONE OFFICE WHOLEBUILDING - MD OFFICE B END_B - STORY TOP,31.58,25.0,305.390,9.670,12.216,0.000,0.700,0.200,0.100,1.000,General,0.000,305.390
 Lights Internal Gains Nominal, OFFICE WHOLEBUILDING - MD OFFICE A END_A - STORY GROUND OFFICE WHOLEBUILDING - MD OFFICE LIGHTS,OFFICEMEDIUM BLDG_LIGHT_SCH_2013,ZONE OFFICE WHOLEBUILDING - MD OFFICE A END_A - STORY GROUND,20.90,25.0,202.134,9.670,8.085,0.000,0.700,0.200,0.100,1.000,General,0.000,202.134
 Lights Internal Gains Nominal, OFFICE WHOLEBUILDING - MD OFFICE C END_B - STORY TOP OFFICE WHOLEBUILDING - MD OFFICE LIGHTS,OFFICEMEDIUM BLDG_LIGHT_SCH_2013,ZONE OFFICE WHOLEBUILDING - MD OFFICE C END_B - STORY TOP,20.90,25.0,202.134,9.670,8.085,0.000,0.700,0.200,0.100,1.000,General,0.000,202.134
! <ElectricEquipment Internal Gains Nominal>,Name,Schedule Name,Zone Name,Zone Floor Area {m2},# Zone Occupants,Equipment Level {W},Equipment/Floor Area {W/m2},Equipment per person {W/person},Fraction Latent,Fraction Radiant,Fraction Lost,Fraction Convected,End-Use SubCategory,Nominal Minimum Equipment Level {W},Nominal Maximum Equipment Level {W}
 ElectricEquipment Internal Gains Nominal, OFFICE WHOLEBUILDING - MD OFFICE B END_A - STORY GROUND ELECTRIC EQUIPMENT 1,OUTAGE AVAILABILITY SCHEDULE,ZONE OFFICE WHOLEBUILDING - MD OFFICE B END_A - STORY GROUND,31.58,25.0,536.880,17.000,21.475,0.000,0.000,0.950,5.000E-002,General,0.000,536.880
 ElectricEquipment Internal Gains Nominal, OFFICE WHOLEBUILDING - MD OFFICE A  - STORY GROUND ELECTRIC EQUIPMENT 1,OUTAGE AVAILABILITY SCHEDULE,ZONE OFFICE WHOLEBUILDING - MD OFFICE A  - STORY GROUND,68.27,25.0,1160.674,17.000,46.427,0.000,0.000,0.950,5.000E-002,General,0.000,1160.674
 ElectricEquipment Internal Gains Nominal, OFFICE WHOLEBUILDING - MD OFFICE C END_A - STORY GROUND ELECTRIC EQUIPMENT 1,OUTAGE AVAILABILITY SCHEDULE,ZONE OFFICE WHOLEBUILDING - MD OFFICE C END_A - STORY GROUND,20.90,25.0,355.354,17.000,14.214,0.000,0.000,0.950,5.000E-002,General,0.000,355.354
 ElectricEquipment Internal Gains Nominal, OFFICE WHOLEBUILDING - MD OFFICE B  - STORY GROUND ELECTRIC EQUIPMENT 1,OUTAGE AVAILABILITY SCHEDULE,ZONE OFFICE WHOLEBUILDING - MD OFFICE B  - STORY GROUND,103.15,25.0,1753.580,17.000,70.143,0.000,0.000,0.950,5.000E-002,General,0.000,1753.580
 ElectricEquipment Internal Gains Nominal, OFFICE WHOLEBUILDING - MD OFFICE C  - STORY GROUND ELECTRIC EQUIPMENT 1,OUTAGE AVAILABILITY SCHEDULE,ZONE OFFICE WHOLEBUILDING - MD OFFICE C  - STORY GROUND,68.27,25.0,1160.674,17.000,46.427,0.000,0.000,0.950,5.000E-002,General,0.000,1160.674
 ElectricEquipment Internal Gains Nominal, OFFICE WHOLEBUILDING - MD OFFICE B END_B - STORY GROUND ELECTRIC EQUIPMENT 1,OUTAGE AVAILABILITY SCHEDULE,ZONE OFFICE WHOLEBUILDING - MD OFFICE B END_B - STORY GROUND,31.58,25.0,536.880,17.000,21.475,0.000,0.000,0.950,5.000E-002,General,0.000,536.880
 ElectricEquipment Internal Gains Nominal, OFFICE WHOLEBUILDING - MD OFFICE C END_B - STORY GROUND ELECTRIC EQUIPMENT 1,OUTAGE AVAILABILITY SCHEDULE,ZONE OFFICE WHOLEBUILDING - MD OFFICE C END_B - STORY GROUND,20.90,25.0,355.354,17.000,14.214,0.000,0.000,0.950,5.000E-002,General,0.000,355.354
 ElectricEquipment Internal Gains Nominal, OFFICE WHOLEBUILDING - MD OFFICE B END_A - STORY TOP ELECTRIC EQUIPMENT 1,OUTAGE AVAILABILITY SCHEDULE,ZONE OFFICE WHOLEBUILDING - MD OFFICE B END_A - STORY TOP,31.58,25.0,536.880,17.000,21.475,0.000,0.000,0.950,5.000E-002,General,0.000,536.880
 ElectricEquipment Internal Gains Nominal, OFFICE WHOLEBUILDING - MD OFFICE A END_A - STORY TOP ELECTRIC EQUIPMENT 1,OUTAGE AVAILABILITY SCHEDULE,ZONE OFFICE WHOLEBUILDING - MD OFFICE A END_A - STORY TOP,20.90,25.0,355.354,17.000,14.214,0.000,0.000,0.950,5.000E-002,General,0.000,355.354
 ElectricEquipment Internal Gains Nominal, OFFICE WHOLEBUILDING - MD OFFICE A  - STORY TOP ELECTRIC EQUIPMENT 1,OUTAGE AVAILABILITY SCHEDULE,ZONE OFFICE WHOLEBUILDING - MD OFFICE A  - STORY TOP,68.27,25.0,1160.674,17.000,46.427,0.000,0.000,0.950,5.000E-002,General,0.000,1160.674
 ElectricEquipment Internal Gains Nominal, OFFICE WHOLEBUILDING - MD OFFICE A END_B - STORY GROUND ELECTRIC EQUIPMENT 1,OUTAGE AVAILABILITY SCHEDULE,ZONE OFFICE WHOLEBUILDING - MD OFFICE A END_B - STORY GROUND,20.90,25.0,355.354,17.000,14.214,0.000,0.000,0.950,5.000E-002,General,0.000,355.354
 ElectricEquipment Internal Gains Nominal, OFFICE WHOLEBUILDING - MD OFFICE C END_A - STORY TOP ELECTRIC EQUIPMENT 1,OUTAGE AVAILABILITY SCHEDULE,ZONE OFFICE WHOLEBUILDING - MD OFFICE C END_A - STORY TOP,20.90,25.0,355.354,17.000,14.214,0.000,0.000,0.950,5.000E-002,General,0.000,355.354
 ElectricEquipment Internal Gains Nominal, OFFICE WHOLEBUILDING - MD OFFICE B  - STORY TOP ELECTRIC EQUIPMENT 1,OUTAGE AVAILABILITY SCHEDULE,ZONE OFFICE WHOLEBUILDING - MD OFFICE B  - STORY TOP,103.15,25.0,1753.580,17.000,70.143,0.000,0.000,0.950,5.000E-002,General,0.000,1753.580
 ElectricEquipment Internal Gains Nominal, OFFICE WHOLEBUILDING - MD OFFICE C  - STORY TOP ELECTRIC EQUIPMENT 1,OUTAGE AVAILABILITY SCHEDULE,ZONE OFFICE WHOLEBUILDING - MD OFFICE C  - STORY TOP,68.27,25.0,1160.674,17.000,46.427,0.000,0.000,0.950,5.000E-002,General,0.000,1160.674
 ElectricEquipment Internal Gains Nominal, OFFICE WHOLEBUILDING - MD OFFICE A END_B - STORY TOP ELECTRIC EQUIPMENT 1,OUTAGE AVAILABILITY SCHEDULE,ZONE OFFICE WHOLEBUILDING - MD OFFICE A END_B - STORY TOP,20.90,25.0,355.354,17.000,14.214,0.000,0.000,0.950,5.000E-002,General,0.000,355.354
 ElectricEquipment Internal Gains Nominal, OFFICE WHOLEBUILDING - MD OFFICE B END_B - STORY TOP ELECTRIC EQUIPMENT 1,OUTAGE AVAILABILITY SCHEDULE,ZONE OFFICE WHOLEBUILDING - MD OFFICE B END_B - STORY TOP,31.58,25.0,536.880,17.000,21.475,0.000,0.000,0.950,5.000E-002,General,0.000,536.880
 ElectricEquipment Internal Gains Nominal, OFFICE WHOLEBUILDING - MD OFFICE A END_A - STORY GROUND ELECTRIC EQUIPMENT 1,OUTAGE AVAILABILITY SCHEDULE,ZONE OFFICE WHOLEBUILDING - MD OFFICE A END_A - STORY GROUND,20.90,25.0,355.354,17.000,14.214,0.000,0.000,0.950,5.000E-002,General,0.000,355.354
 ElectricEquipment Internal Gains Nominal, OFFICE WHOLEBUILDING - MD OFFICE C END_B - STORY TOP ELECTRIC EQUIPMENT 1,OUTAGE AVAILABILITY SCHEDULE,ZONE OFFICE WHOLEBUILDING - MD OFFICE C END_B - STORY TOP,20.90,25.0,355.354,17.000,14.214,0.000,0.000,0.950,5.000E-002,General,0.000,355.354
 ElectricEquipment Internal Gains Nominal, OFFICE WHOLEBUILDING - MD OFFICE B END_A - STORY GROUND OFFICE WHOLEBUILDING - MD OFFICE ELEC EQUIP,OFFICEMEDIUM BLDG_EQUIP_SCH_2013,ZONE OFFICE WHOLEBUILDING - MD OFFICE B END_A - STORY GROUND,31.58,25.0,254.953,8.073,10.198,0.000,0.500,0.000,0.500,General,0.000,254.953
 ElectricEquipment Internal Gains Nominal, OFFICE WHOLEBUILDING - MD OFFICE A  - STORY GROUND OFFICE WHOLEBUILDING - MD OFFICE ELEC EQUIP,OFFICEMEDIUM BLDG_EQUIP_SCH_2013,ZONE OFFICE WHOLEBUILDING - MD OFFICE A  - STORY GROUND,68.27,25.0,551.179,8.073,22.047,0.000,0.500,0.000,0.500,General,0.000,551.179
 ElectricEquipment Internal Gains Nominal, OFFICE WHOLEBUILDING - MD OFFICE C END_A - STORY GROUND OFFICE WHOLEBUILDING - MD OFFICE ELEC EQUIP,OFFICEMEDIUM BLDG_EQUIP_SCH_2013,ZONE OFFICE WHOLEBUILDING - MD OFFICE C END_A - STORY GROUND,20.90,25.0,168.750,8.073,6.750,0.000,0.500,0.000,0.500,General,0.000,168.750
 ElectricEquipment Internal Gains Nominal, OFFICE WHOLEBUILDING - MD OFFICE B  - STORY GROUND OFFICE WHOLEBUILDING - MD OFFICE ELEC EQUIP,OFFICEMEDIUM BLDG_EQUIP_SCH_2013,ZONE OFFICE WHOLEBUILDING - MD OFFICE B  - STORY GROUND,103.15,25.0,832.737,8.073,33.309,0.000,0.500,0.000,0.500,General,0.000,832.737
 ElectricEquipment Internal Gains Nominal, OFFICE WHOLEBUILDING - MD OFFICE C  - STORY GROUND OFFICE WHOLEBUILDING - MD OFFICE ELEC EQUIP,OFFICEMEDIUM BLDG_EQUIP_SCH_2013,ZONE OFFICE WHOLEBUILDING - MD OFFICE C  - STORY GROUND,68.27,25.0,551.179,8.073,22.047,0.000,0.500,0.000,0.500,General,0.000,551.179
 ElectricEquipment Internal Gains Nominal, OFFICE WHOLEBUILDING - MD OFFICE B END_B - STORY GROUND OFFICE WHOLEBUILDING - MD OFFICE ELEC EQUIP,OFFICEMEDIUM BLDG_EQUIP_SCH_2013,ZONE OFFICE WHOLEBUILDING - MD OFFICE B END_B - STORY GROUND,31.58,25.0,254.953,8.073,10.198,0.000,0.500,0.000,0.500,General,0.000,254.953
 ElectricEquipment Internal Gains Nominal, OFFICE WHOLEBUILDING - MD OFFICE C END_B - STORY GROUND OFFICE WHOLEBUILDING - MD OFFICE ELEC EQUIP,OFFICEMEDIUM BLDG_EQUIP_SCH_2013,ZONE OFFICE WHOLEBUILDING - MD OFFICE C END_B - STORY GROUND,20.90,25.0,168.750,8.073,6.750,0.000,0.500,0.000,0.500,General,0.000,168.750
 ElectricEquipment Internal Gains Nominal, OFFICE WHOLEBUILDING - MD OFFICE B END_A - STORY TOP OFFICE WHOLEBUILDING - MD OFFICE ELEC EQUIP,OFFICEMEDIUM BLDG_EQUIP_SCH_2013,ZONE OFFICE WHOLEBUILDING - MD OFFICE B END_A - STORY TOP,31.58,25.0,254.953,8.073,10.198,0.000,0.500,0.000,0.500,General,0.000,254.953
 ElectricEquipment Internal Gains Nominal, OFFICE WHOLEBUILDING - MD OFFICE A END_A - STORY TOP OFFICE WHOLEBUILDING - MD OFFICE ELEC EQUIP,OFFICEMEDIUM BLDG_EQUIP_SCH_2013,ZONE OFFICE WHOLEBUILDING - MD OFFICE A END_A - STORY TOP,20.90,25.0,168.750,8.073,6.750,0.000,0.500,0.000,0.500,General,0.000,168.750
 ElectricEquipment Internal Gains Nominal, OFFICE WHOLEBUILDING - MD OFFICE A  - STORY TOP OFFICE WHOLEBUILDING - MD OFFICE ELEC EQUIP,OFFICEMEDIUM BLDG_EQUIP_SCH_2013,ZONE OFFICE WHOLEBUILDING - MD OFFICE A  - STORY TOP,68.27,25.0,551.179,8.073,22.047,0.000,0.500,0.000,0.500,General,0.000,551.179
 ElectricEquipment Internal Gains Nominal, OFFICE WHOLEBUILDING - MD OFFICE A END_B - STORY GROUND OFFICE WHOLEBUILDING - MD OFFICE ELEC EQUIP,OFFICEMEDIUM BLDG_EQUIP_SCH_2013,ZONE OFFICE WHOLEBUILDING - MD OFFICE A END_B - STORY GROUND,20.90,25.0,168.750,8.073,6.750,0.000,0.500,0.000,0.500,General,0.000,168.750
 ElectricEquipment Internal Gains Nominal, OFFICE WHOLEBUILDING - MD OFFICE C END_A - STORY TOP OFFICE WHOLEBUILDING - MD OFFICE ELEC EQUIP,OFFICEMEDIUM BLDG_EQUIP_SCH_2013,ZONE OFFICE WHOLEBUILDING - MD OFFICE C END_A - STORY TOP,20.90,25.0,168.750,8.073,6.750,0.000,0.500,0.000,0.500,General,0.000,168.750
 ElectricEquipment Internal Gains Nominal, OFFICE WHOLEBUILDING - MD OFFICE B  - STORY TOP OFFICE WHOLEBUILDING - MD OFFICE ELEC EQUIP,OFFICEMEDIUM BLDG_EQUIP_SCH_2013,ZONE OFFICE WHOLEBUILDING - MD OFFICE B  - STORY TOP,103.15,25.0,832.737,8.073,33.309,0.000,0.500,0.000,0.500,General,0.000,832.737
 ElectricEquipment Internal Gains Nominal, OFFICE WHOLEBUILDING - MD OFFICE C  - STORY TOP OFFICE WHOLEBUILDING - MD OFFICE ELEC EQUIP,OFFICEMEDIUM BLDG_EQUIP_SCH_2013,ZONE OFFICE WHOLEBUILDING - MD OFFICE C  - STORY TOP,68.27,25.0,551.179,8.073,22.047,0.000,0.500,0.000,0.500,General,0.000,551.179
 ElectricEquipment Internal Gains Nominal, OFFICE WHOLEBUILDING - MD OFFICE A END_B - STORY TOP OFFICE WHOLEBUILDING - MD OFFICE ELEC EQUIP,OFFICEMEDIUM BLDG_EQUIP_SCH_2013,ZONE OFFICE WHOLEBUILDING - MD OFFICE A END_B - STORY TOP,20.90,25.0,168.750,8.073,6.750,0.000,0.500,0.000,0.500,General,0.000,168.750
 ElectricEquipment Internal Gains Nominal, OFFICE WHOLEBUILDING - MD OFFICE B END_B - STORY TOP OFFICE WHOLEBUILDING - MD OFFICE ELEC EQUIP,OFFICEMEDIUM BLDG_EQUIP_SCH_2013,ZONE OFFICE WHOLEBUILDING - MD OFFICE B END_B - STORY TOP,31.58,25.0,254.953,8.073,10.198,0.000,0.500,0.000,0.500,General,0.000,254.953
 ElectricEquipment Internal Gains Nominal, OFFICE WHOLEBUILDING - MD OFFICE A END_A - STORY GROUND OFFICE WHOLEBUILDING - MD OFFICE ELEC EQUIP,OFFICEMEDIUM BLDG_EQUIP_SCH_2013,ZONE OFFICE WHOLEBUILDING - MD OFFICE A END_A - STORY GROUND,20.90,25.0,168.750,8.073,6.750,0.000,0.500,0.000,0.500,General,0.000,168.750
 ElectricEquipment Internal Gains Nominal, OFFICE WHOLEBUILDING - MD OFFICE C END_B - STORY TOP OFFICE WHOLEBUILDING - MD OFFICE ELEC EQUIP,OFFICEMEDIUM BLDG_EQUIP_SCH_2013,ZONE OFFICE WHOLEBUILDING - MD OFFICE C END_B - STORY TOP,20.90,25.0,168.750,8.073,6.750,0.000,0.500,0.000,0.500,General,0.000,168.750
! <Shadowing/Sun Position Calculations Annual Simulations>, Shading Calculation Method, Shading Calculation Update Frequency Method, Shading Calculation Update Frequency {days}, Maximum Figures in Shadow Overlap Calculations {}, Polygon Clipping Algorithm, Pixel Counting Resolution, Sky Diffuse Modeling Algorithm, Output External Shading Calculation Results, Disable Self-Shading Within Shading Zone Groups, Disable Self-Shading From Shading Zone Groups to Other Zones
Shadowing/Sun Position Calculations Annual Simulations,PolygonClipping,Periodic,30,15000,SutherlandHodgman,512,SimpleSkyDiffuseModeling,No,No,No
! <Enclosure/Window Adjacency Daylighting Counts>, Enclosure Name, Number of Exterior Windows, Number of Exterior Windows in Adjacent Enclosures
Enclosure/Window Adjacency Daylighting Counts, OFFICE WHOLEBUILDING - MD OFFICE A  - STORY GROUND,1,0
Enclosure/Window Adjacency Daylighting Counts, OFFICE WHOLEBUILDING - MD OFFICE A  - STORY TOP,1,0
Enclosure/Window Adjacency Daylighting Counts, OFFICE WHOLEBUILDING - MD OFFICE C  - STORY GROUND,1,0
Enclosure/Window Adjacency Daylighting Counts, OFFICE WHOLEBUILDING - MD OFFICE C  - STORY TOP,1,0
! <Enclosure/Window Adjacency Daylighting Matrix>, Enclosure Name, Number of Adjacent Enclosures with Windows,Adjacent Enclosure Names - 1st 100 (max)
Enclosure/Window Adjacency Daylighting Matrix, OFFICE WHOLEBUILDING - MD OFFICE A  - STORY GROUND,0
Enclosure/Window Adjacency Daylighting Matrix, OFFICE WHOLEBUILDING - MD OFFICE A  - STORY TOP,0
Enclosure/Window Adjacency Daylighting Matrix, OFFICE WHOLEBUILDING - MD OFFICE C  - STORY GROUND,0
Enclosure/Window Adjacency Daylighting Matrix, OFFICE WHOLEBUILDING - MD OFFICE C  - STORY TOP,0
! <Water Heater Information>,Type,Name,Volume {m3},Maximum Capacity {W},Standard Rated Recovery Efficiency, Standard Rated Energy Factor
! <ZoneInfiltration Airflow Stats Nominal>,Name,Schedule Name,Zone Name, Zone Floor Area {m2}, # Zone Occupants,Design Volume Flow Rate {m3/s},Volume Flow Rate/Floor Area {m3/s-m2},Volume Flow Rate/Exterior Surface Area {m3/s-m2},ACH - Air Changes per Hour,Equation A - Constant Term Coefficient {},Equation B - Temperature Term Coefficient {1/C},Equation C - Velocity Term Coefficient {s/m}, Equation D - Velocity Squared Term Coefficient {s2/m2}
 ZoneInfiltration Airflow Stats Nominal, OFFICE WHOLEBUILDING - MD OFFICE A  - STORY GROUND INFILTRATION,ALWAYS ON DISCRETE,ZONE OFFICE WHOLEBUILDING - MD OFFICE A  - STORY GROUND,68.27,25.0,6.741E-002,9.873E-004,5.696E-004,0.448,0.000,0.000,0.224,0.000
 ZoneInfiltration Airflow Stats Nominal, OFFICE WHOLEBUILDING - MD OFFICE A  - STORY TOP INFILTRATION,ALWAYS ON DISCRETE,ZONE OFFICE WHOLEBUILDING - MD OFFICE A  - STORY TOP,68.27,25.0,6.741E-002,9.873E-004,3.612E-004,0.448,0.000,0.000,0.224,0.000
 ZoneInfiltration Airflow Stats Nominal, OFFICE WHOLEBUILDING - MD OFFICE A END_A - STORY GROUND INFILTRATION,ALWAYS ON DISCRETE,ZONE OFFICE WHOLEBUILDING - MD OFFICE A END_A - STORY GROUND,20.90,25.0,4.127E-002,1.975E-003,5.696E-004,0.897,0.000,0.000,0.224,0.000
 ZoneInfiltration Airflow Stats Nominal, OFFICE WHOLEBUILDING - MD OFFICE A END_A - STORY TOP INFILTRATION,ALWAYS ON DISCRETE,ZONE OFFICE WHOLEBUILDING - MD OFFICE A END_A - STORY TOP,20.90,25.0,4.127E-002,1.975E-003,4.421E-004,0.897,0.000,0.000,0.224,0.000
 ZoneInfiltration Airflow Stats Nominal, OFFICE WHOLEBUILDING - MD OFFICE A END_B - STORY GROUND INFILTRATION,ALWAYS ON DISCRETE,ZONE OFFICE WHOLEBUILDING - MD OFFICE A END_B - STORY GROUND,20.90,25.0,4.127E-002,1.975E-003,5.696E-004,0.897,0.000,0.000,0.224,0.000
 ZoneInfiltration Airflow Stats Nominal, OFFICE WHOLEBUILDING - MD OFFICE A END_B - STORY TOP INFILTRATION,ALWAYS ON DISCRETE,ZONE OFFICE WHOLEBUILDING - MD OFFICE A END_B - STORY TOP,20.90,25.0,4.127E-002,1.975E-003,4.421E-004,0.897,0.000,0.000,0.224,0.000
 ZoneInfiltration Airflow Stats Nominal, OFFICE WHOLEBUILDING - MD OFFICE B END_A - STORY GROUND INFILTRATION,ALWAYS ON DISCRETE,ZONE OFFICE WHOLEBUILDING - MD OFFICE B END_A - STORY GROUND,31.58,25.0,3.118E-002,9.873E-004,5.696E-004,0.448,0.000,0.000,0.224,0.000
 ZoneInfiltration Airflow Stats Nominal, OFFICE WHOLEBUILDING - MD OFFICE B END_A - STORY TOP INFILTRATION,ALWAYS ON DISCRETE,ZONE OFFICE WHOLEBUILDING - MD OFFICE B END_A - STORY TOP,31.58,25.0,3.118E-002,9.873E-004,3.612E-004,0.448,0.000,0.000,0.224,0.000
 ZoneInfiltration Airflow Stats Nominal, OFFICE WHOLEBUILDING - MD OFFICE B END_B - STORY GROUND INFILTRATION,ALWAYS ON DISCRETE,ZONE OFFICE WHOLEBUILDING - MD OFFICE B END_B - STORY GROUND,31.58,25.0,3.118E-002,9.873E-004,5.696E-004,0.448,0.000,0.000,0.224,0.000
 ZoneInfiltration Airflow Stats Nominal, OFFICE WHOLEBUILDING - MD OFFICE B END_B - STORY TOP INFILTRATION,ALWAYS ON DISCRETE,ZONE OFFICE WHOLEBUILDING - MD OFFICE B END_B - STORY TOP,31.58,25.0,3.118E-002,9.873E-004,3.612E-004,0.448,0.000,0.000,0.224,0.000
 ZoneInfiltration Airflow Stats Nominal, OFFICE WHOLEBUILDING - MD OFFICE C  - STORY GROUND INFILTRATION,ALWAYS ON DISCRETE,ZONE OFFICE WHOLEBUILDING - MD OFFICE C  - STORY GROUND,68.27,25.0,6.741E-002,9.873E-004,5.696E-004,0.448,0.000,0.000,0.224,0.000
 ZoneInfiltration Airflow Stats Nominal, OFFICE WHOLEBUILDING - MD OFFICE C  - STORY TOP INFILTRATION,ALWAYS ON DISCRETE,ZONE OFFICE WHOLEBUILDING - MD OFFICE C  - STORY TOP,68.27,25.0,6.741E-002,9.873E-004,3.612E-004,0.448,0.000,0.000,0.224,0.000
 ZoneInfiltration Airflow Stats Nominal, OFFICE WHOLEBUILDING - MD OFFICE C END_A - STORY GROUND INFILTRATION,ALWAYS ON DISCRETE,ZONE OFFICE WHOLEBUILDING - MD OFFICE C END_A - STORY GROUND,20.90,25.0,4.127E-002,1.975E-003,5.696E-004,0.897,0.000,0.000,0.224,0.000
 ZoneInfiltration Airflow Stats Nominal, OFFICE WHOLEBUILDING - MD OFFICE C END_A - STORY TOP INFILTRATION,ALWAYS ON DISCRETE,ZONE OFFICE WHOLEBUILDING - MD OFFICE C END_A - STORY TOP,20.90,25.0,4.127E-002,1.975E-003,4.421E-004,0.897,0.000,0.000,0.224,0.000
 ZoneInfiltration Airflow Stats Nominal, OFFICE WHOLEBUILDING - MD OFFICE C END_B - STORY GROUND INFILTRATION,ALWAYS ON DISCRETE,ZONE OFFICE WHOLEBUILDING - MD OFFICE C END_B - STORY GROUND,20.90,25.0,4.127E-002,1.975E-003,5.696E-004,0.897,0.000,0.000,0.224,0.000
 ZoneInfiltration Airflow Stats Nominal, OFFICE WHOLEBUILDING - MD OFFICE C END_B - STORY TOP INFILTRATION,ALWAYS ON DISCRETE,ZONE OFFICE WHOLEBUILDING - MD OFFICE C END_B - STORY TOP,20.90,25.0,4.127E-002,1.975E-003,4.421E-004,0.897,0.000,0.000,0.224,0.000
! <AirFlow Model>, Simple
 AirFlow Model, Simple
! <RoomAir Model>, Zone Name, Mixing/Mundt/UCSDDV/UCSDCV/UCSDUFI/UCSDUFE/User Defined
RoomAir Model,ZONE OFFICE WHOLEBUILDING - MD OFFICE A  - STORY GROUND,Mixing/Well-Stirred
RoomAir Model,ZONE OFFICE WHOLEBUILDING - MD OFFICE A  - STORY TOP,Mixing/Well-Stirred
RoomAir Model,ZONE OFFICE WHOLEBUILDING - MD OFFICE A END_A - STORY GROUND,Mixing/Well-Stirred
RoomAir Model,ZONE OFFICE WHOLEBUILDING - MD OFFICE A END_A - STORY TOP,Mixing/Well-Stirred
RoomAir Model,ZONE OFFICE WHOLEBUILDING - MD OFFICE A END_B - STORY GROUND,Mixing/Well-Stirred
RoomAir Model,ZONE OFFICE WHOLEBUILDING - MD OFFICE A END_B - STORY TOP,Mixing/Well-Stirred
RoomAir Model,ZONE OFFICE WHOLEBUILDING - MD OFFICE B  - STORY GROUND,Mixing/Well-Stirred
RoomAir Model,ZONE OFFICE WHOLEBUILDING - MD OFFICE B  - STORY TOP,Mixing/Well-Stirred
RoomAir Model,ZONE OFFICE WHOLEBUILDING - MD OFFICE B END_A - STORY GROUND,Mixing/Well-Stirred
RoomAir Model,ZONE OFFICE WHOLEBUILDING - MD OFFICE B END_A - STORY TOP,Mixing/Well-Stirred
RoomAir Model,ZONE OFFICE WHOLEBUILDING - MD OFFICE B END_B - STORY GROUND,Mixing/Well-Stirred
RoomAir Model,ZONE OFFICE WHOLEBUILDING - MD OFFICE B END_B - STORY TOP,Mixing/Well-Stirred
RoomAir Model,ZONE OFFICE WHOLEBUILDING - MD OFFICE C  - STORY GROUND,Mixing/Well-Stirred
RoomAir Model,ZONE OFFICE WHOLEBUILDING - MD OFFICE C  - STORY TOP,Mixing/Well-Stirred
RoomAir Model,ZONE OFFICE WHOLEBUILDING - MD OFFICE C END_A - STORY GROUND,Mixing/Well-Stirred
RoomAir Model,ZONE OFFICE WHOLEBUILDING - MD OFFICE C END_A - STORY TOP,Mixing/Well-Stirred
RoomAir Model,ZONE OFFICE WHOLEBUILDING - MD OFFICE C END_B - STORY GROUND,Mixing/Well-Stirred
RoomAir Model,ZONE OFFICE WHOLEBUILDING - MD OFFICE C END_B - STORY TOP,Mixing/Well-Stirred
! <AirflowNetwork Model:Control>, No Multizone or Distribution/Multizone with Distribution/Multizone without Distribution/Multizone with Distribution only during Fan Operation
AirflowNetwork Model:Control,NoMultizoneOrDistribution
! <Zone Volume Capacitance Multiplier>, Sensible Heat Capacity Multiplier, Moisture Capacity Multiplier, Carbon Dioxide Capacity Multiplier, Generic Contaminant Capacity Multiplier
Zone Volume Capacitance Multiplier,   1.000 ,   1.000,   1.000,   1.000
! <Load Timesteps in Zone Design Calculation Averaging Window>, Value
 Load Timesteps in Zone Design Calculation Averaging Window,    1
! <Heating Sizing Factor Information>, Sizing Factor ID, Value
 Heating Sizing Factor Information, Global,   1.2500    
 Heating Sizing Factor Information, Zone ZONE OFFICE WHOLEBUILDING - MD OFFICE A  - STORY GROUND,   1.2500    
 Heating Sizing Factor Information, Zone ZONE OFFICE WHOLEBUILDING - MD OFFICE A  - STORY TOP,   1.2500    
 Heating Sizing Factor Information, Zone ZONE OFFICE WHOLEBUILDING - MD OFFICE A END_A - STORY GROUND,   1.2500    
 Heating Sizing Factor Information, Zone ZONE OFFICE WHOLEBUILDING - MD OFFICE A END_A - STORY TOP,   1.2500    
 Heating Sizing Factor Information, Zone ZONE OFFICE WHOLEBUILDING - MD OFFICE A END_B - STORY GROUND,   1.2500    
 Heating Sizing Factor Information, Zone ZONE OFFICE WHOLEBUILDING - MD OFFICE A END_B - STORY TOP,   1.2500    
 Heating Sizing Factor Information, Zone ZONE OFFICE WHOLEBUILDING - MD OFFICE B  - STORY GROUND,   1.2500    
 Heating Sizing Factor Information, Zone ZONE OFFICE WHOLEBUILDING - MD OFFICE B  - STORY TOP,   1.2500    
 Heating Sizing Factor Information, Zone ZONE OFFICE WHOLEBUILDING - MD OFFICE B END_A - STORY GROUND,   1.2500    
 Heating Sizing Factor Information, Zone ZONE OFFICE WHOLEBUILDING - MD OFFICE B END_A - STORY TOP,   1.2500    
 Heating Sizing Factor Information, Zone ZONE OFFICE WHOLEBUILDING - MD OFFICE B END_B - STORY GROUND,   1.2500    
 Heating Sizing Factor Information, Zone ZONE OFFICE WHOLEBUILDING - MD OFFICE B END_B - STORY TOP,   1.2500    
 Heating Sizing Factor Information, Zone ZONE OFFICE WHOLEBUILDING - MD OFFICE C  - STORY GROUND,   1.2500    
 Heating Sizing Factor Information, Zone ZONE OFFICE WHOLEBUILDING - MD OFFICE C  - STORY TOP,   1.2500    
 Heating Sizing Factor Information, Zone ZONE OFFICE WHOLEBUILDING - MD OFFICE C END_A - STORY GROUND,   1.2500    
 Heating Sizing Factor Information, Zone ZONE OFFICE WHOLEBUILDING - MD OFFICE C END_A - STORY TOP,   1.2500    
 Heating Sizing Factor Information, Zone ZONE OFFICE WHOLEBUILDING - MD OFFICE C END_B - STORY GROUND,   1.2500    
 Heating Sizing Factor Information, Zone ZONE OFFICE WHOLEBUILDING - MD OFFICE C END_B - STORY TOP,   1.2500    
! <Cooling Sizing Factor Information>, Sizing Factor ID, Value
 Cooling Sizing Factor Information, Global,   1.1500    
 Cooling Sizing Factor Information, Zone ZONE OFFICE WHOLEBUILDING - MD OFFICE A  - STORY GROUND,   1.1500    
 Cooling Sizing Factor Information, Zone ZONE OFFICE WHOLEBUILDING - MD OFFICE A  - STORY TOP,   1.1500    
 Cooling Sizing Factor Information, Zone ZONE OFFICE WHOLEBUILDING - MD OFFICE A END_A - STORY GROUND,   1.1500    
 Cooling Sizing Factor Information, Zone ZONE OFFICE WHOLEBUILDING - MD OFFICE A END_A - STORY TOP,   1.1500    
 Cooling Sizing Factor Information, Zone ZONE OFFICE WHOLEBUILDING - MD OFFICE A END_B - STORY GROUND,   1.1500    
 Cooling Sizing Factor Information, Zone ZONE OFFICE WHOLEBUILDING - MD OFFICE A END_B - STORY TOP,   1.1500    
 Cooling Sizing Factor Information, Zone ZONE OFFICE WHOLEBUILDING - MD OFFICE B  - STORY GROUND,   1.1500    
 Cooling Sizing Factor Information, Zone ZONE OFFICE WHOLEBUILDING - MD OFFICE B  - STORY TOP,   1.1500    
 Cooling Sizing Factor Information, Zone ZONE OFFICE WHOLEBUILDING - MD OFFICE B END_A - STORY GROUND,   1.1500    
 Cooling Sizing Factor Information, Zone ZONE OFFICE WHOLEBUILDING - MD OFFICE B END_A - STORY TOP,   1.1500    
 Cooling Sizing Factor Information, Zone ZONE OFFICE WHOLEBUILDING - MD OFFICE B END_B - STORY GROUND,   1.1500    
 Cooling Sizing Factor Information, Zone ZONE OFFICE WHOLEBUILDING - MD OFFICE B END_B - STORY TOP,   1.1500    
 Cooling Sizing Factor Information, Zone ZONE OFFICE WHOLEBUILDING - MD OFFICE C  - STORY GROUND,   1.1500    
 Cooling Sizing Factor Information, Zone ZONE OFFICE WHOLEBUILDING - MD OFFICE C  - STORY TOP,   1.1500    
 Cooling Sizing Factor Information, Zone ZONE OFFICE WHOLEBUILDING - MD OFFICE C END_A - STORY GROUND,   1.1500    
 Cooling Sizing Factor Information, Zone ZONE OFFICE WHOLEBUILDING - MD OFFICE C END_A - STORY TOP,   1.1500    
 Cooling Sizing Factor Information, Zone ZONE OFFICE WHOLEBUILDING - MD OFFICE C END_B - STORY GROUND,   1.1500    
 Cooling Sizing Factor Information, Zone ZONE OFFICE WHOLEBUILDING - MD OFFICE C END_B - STORY TOP,   1.1500    
! <Sky Daylight Factors>, Sky Type, MonthAndDay, Daylighting Control Name, Enclosure Name, Window Name, Reference Point, Daylight Factor
 Sky Daylight Factors,Clear Sky,08/21,ZONE OFFICE WHOLEBUILDING - MD OFFICE A  - STORY GROUND DAYLIGHTINGCONTROLS,OFFICE WHOLEBUILDING - MD OFFICE A  - STORY GROUND,SUB SURFACE 2,OFFICE WHOLEBUILDING - MD OFFICE A  - STORY GROUND DAYLT SENSOR 1,9.0226E-002
 Sky Daylight Factors,Clear Sky,08/21,ZONE OFFICE WHOLEBUILDING - MD OFFICE A  - STORY GROUND DAYLIGHTINGCONTROLS,OFFICE WHOLEBUILDING - MD OFFICE A  - STORY GROUND,SUB SURFACE 2,OFFICE WHOLEBUILDING - MD OFFICE A  - STORY GROUND DAYLT SENSOR 2,3.7637E-002
 Sky Daylight Factors,Clear Turbid Sky,08/21,ZONE OFFICE WHOLEBUILDING - MD OFFICE A  - STORY GROUND DAYLIGHTINGCONTROLS,OFFICE WHOLEBUILDING - MD OFFICE A  - STORY GROUND,SUB SURFACE 2,OFFICE WHOLEBUILDING - MD OFFICE A  - STORY GROUND DAYLT SENSOR 1,9.6144E-002
 Sky Daylight Factors,Clear Turbid Sky,08/21,ZONE OFFICE WHOLEBUILDING - MD OFFICE A  - STORY GROUND DAYLIGHTINGCONTROLS,OFFICE WHOLEBUILDING - MD OFFICE A  - STORY GROUND,SUB SURFACE 2,OFFICE WHOLEBUILDING - MD OFFICE A  - STORY GROUND DAYLT SENSOR 2,3.8500E-002
 Sky Daylight Factors,Intermediate Sky,08/21,ZONE OFFICE WHOLEBUILDING - MD OFFICE A  - STORY GROUND DAYLIGHTINGCONTROLS,OFFICE WHOLEBUILDING - MD OFFICE A  - STORY GROUND,SUB SURFACE 2,OFFICE WHOLEBUILDING - MD OFFICE A  - STORY GROUND DAYLT SENSOR 1,7.2932E-002
 Sky Daylight Factors,Intermediate Sky,08/21,ZONE OFFICE WHOLEBUILDING - MD OFFICE A  - STORY GROUND DAYLIGHTINGCONTROLS,OFFICE WHOLEBUILDING - MD OFFICE A  - STORY GROUND,SUB SURFACE 2,OFFICE WHOLEBUILDING - MD OFFICE A  - STORY GROUND DAYLT SENSOR 2,2.7309E-002
 Sky Daylight Factors,Overcast Sky,08/21,ZONE OFFICE WHOLEBUILDING - MD OFFICE A  - STORY GROUND DAYLIGHTINGCONTROLS,OFFICE WHOLEBUILDING - MD OFFICE A  - STORY GROUND,SUB SURFACE 2,OFFICE WHOLEBUILDING - MD OFFICE A  - STORY GROUND DAYLT SENSOR 1,3.4657E-002
 Sky Daylight Factors,Overcast Sky,08/21,ZONE OFFICE WHOLEBUILDING - MD OFFICE A  - STORY GROUND DAYLIGHTINGCONTROLS,OFFICE WHOLEBUILDING - MD OFFICE A  - STORY GROUND,SUB SURFACE 2,OFFICE WHOLEBUILDING - MD OFFICE A  - STORY GROUND DAYLT SENSOR 2,1.2656E-002
 Sky Daylight Factors,Clear Sky,08/21,ZONE OFFICE WHOLEBUILDING - MD OFFICE A  - STORY TOP DAYLIGHTINGCONTROLS,OFFICE WHOLEBUILDING - MD OFFICE A  - STORY TOP,SUB SURFACE 13,OFFICE WHOLEBUILDING - MD OFFICE A  - STORY TOP DAYLT SENSOR 1,8.8692E-002
 Sky Daylight Factors,Clear Sky,08/21,ZONE OFFICE WHOLEBUILDING - MD OFFICE A  - STORY TOP DAYLIGHTINGCONTROLS,OFFICE WHOLEBUILDING - MD OFFICE A  - STORY TOP,SUB SURFACE 13,OFFICE WHOLEBUILDING - MD OFFICE A  - STORY TOP DAYLT SENSOR 2,3.6103E-002
 Sky Daylight Factors,Clear Turbid Sky,08/21,ZONE OFFICE WHOLEBUILDING - MD OFFICE A  - STORY TOP DAYLIGHTINGCONTROLS,OFFICE WHOLEBUILDING - MD OFFICE A  - STORY TOP,SUB SURFACE 13,OFFICE WHOLEBUILDING - MD OFFICE A  - STORY TOP DAYLT SENSOR 1,9.4535E-002
 Sky Daylight Factors,Clear Turbid Sky,08/21,ZONE OFFICE WHOLEBUILDING - MD OFFICE A  - STORY TOP DAYLIGHTINGCONTROLS,OFFICE WHOLEBUILDING - MD OFFICE A  - STORY TOP,SUB SURFACE 13,OFFICE WHOLEBUILDING - MD OFFICE A  - STORY TOP DAYLT SENSOR 2,3.6891E-002
 Sky Daylight Factors,Intermediate Sky,08/21,ZONE OFFICE WHOLEBUILDING - MD OFFICE A  - STORY TOP DAYLIGHTINGCONTROLS,OFFICE WHOLEBUILDING - MD OFFICE A  - STORY TOP,SUB SURFACE 13,OFFICE WHOLEBUILDING - MD OFFICE A  - STORY TOP DAYLT SENSOR 1,7.1721E-002
 Sky Daylight Factors,Intermediate Sky,08/21,ZONE OFFICE WHOLEBUILDING - MD OFFICE A  - STORY TOP DAYLIGHTINGCONTROLS,OFFICE WHOLEBUILDING - MD OFFICE A  - STORY TOP,SUB SURFACE 13,OFFICE WHOLEBUILDING - MD OFFICE A  - STORY TOP DAYLT SENSOR 2,2.6098E-002
 Sky Daylight Factors,Overcast Sky,08/21,ZONE OFFICE WHOLEBUILDING - MD OFFICE A  - STORY TOP DAYLIGHTINGCONTROLS,OFFICE WHOLEBUILDING - MD OFFICE A  - STORY TOP,SUB SURFACE 13,OFFICE WHOLEBUILDING - MD OFFICE A  - STORY TOP DAYLT SENSOR 1,3.4035E-002
 Sky Daylight Factors,Overcast Sky,08/21,ZONE OFFICE WHOLEBUILDING - MD OFFICE A  - STORY TOP DAYLIGHTINGCONTROLS,OFFICE WHOLEBUILDING - MD OFFICE A  - STORY TOP,SUB SURFACE 13,OFFICE WHOLEBUILDING - MD OFFICE A  - STORY TOP DAYLT SENSOR 2,1.2034E-002
 Sky Daylight Factors,Clear Sky,08/21,ZONE OFFICE WHOLEBUILDING - MD OFFICE C  - STORY GROUND DAYLIGHTINGCONTROLS,OFFICE WHOLEBUILDING - MD OFFICE C  - STORY GROUND,SUB SURFACE 12,OFFICE WHOLEBUILDING - MD OFFICE C  - STORY GROUND DAYLT SENSOR 1,3.1696E-002
 Sky Daylight Factors,Clear Sky,08/21,ZONE OFFICE WHOLEBUILDING - MD OFFICE C  - STORY GROUND DAYLIGHTINGCONTROLS,OFFICE WHOLEBUILDING - MD OFFICE C  - STORY GROUND,SUB SURFACE 12,OFFICE WHOLEBUILDING - MD OFFICE C  - STORY GROUND DAYLT SENSOR 2,1.6586E-002
 Sky Daylight Factors,Clear Turbid Sky,08/21,ZONE OFFICE WHOLEBUILDING - MD OFFICE C  - STORY GROUND DAYLIGHTINGCONTROLS,OFFICE WHOLEBUILDING - MD OFFICE C  - STORY GROUND,SUB SURFACE 12,OFFICE WHOLEBUILDING - MD OFFICE C  - STORY GROUND DAYLT SENSOR 1,2.4851E-002
 Sky Daylight Factors,Clear Turbid Sky,08/21,ZONE OFFICE WHOLEBUILDING - MD OFFICE C  - STORY GROUND DAYLIGHTINGCONTROLS,OFFICE WHOLEBUILDING - MD OFFICE C  - STORY GROUND,SUB SURFACE 12,OFFICE WHOLEBUILDING - MD OFFICE C  - STORY GROUND DAYLT SENSOR 2,1.2866E-002
 Sky Daylight Factors,Intermediate Sky,08/21,ZONE OFFICE WHOLEBUILDING - MD OFFICE C  - STORY GROUND DAYLIGHTINGCONTROLS,OFFICE WHOLEBUILDING - MD OFFICE C  - STORY GROUND,SUB SURFACE 12,OFFICE WHOLEBUILDING - MD OFFICE C  - STORY GROUND DAYLT SENSOR 1,2.2794E-002
 Sky Daylight Factors,Intermediate Sky,08/21,ZONE OFFICE WHOLEBUILDING - MD OFFICE C  - STORY GROUND DAYLIGHTINGCONTROLS,OFFICE WHOLEBUILDING - MD OFFICE C  - STORY GROUND,SUB SURFACE 12,OFFICE WHOLEBUILDING - MD OFFICE C  - STORY GROUND DAYLT SENSOR 2,9.2855E-003
 Sky Daylight Factors,Overcast Sky,08/21,ZONE OFFICE WHOLEBUILDING - MD OFFICE C  - STORY GROUND DAYLIGHTINGCONTROLS,OFFICE WHOLEBUILDING - MD OFFICE C  - STORY GROUND,SUB SURFACE 12,OFFICE WHOLEBUILDING - MD OFFICE C  - STORY GROUND DAYLT SENSOR 1,3.4657E-002
 Sky Daylight Factors,Overcast Sky,08/21,ZONE OFFICE WHOLEBUILDING - MD OFFICE C  - STORY GROUND DAYLIGHTINGCONTROLS,OFFICE WHOLEBUILDING - MD OFFICE C  - STORY GROUND,SUB SURFACE 12,OFFICE WHOLEBUILDING - MD OFFICE C  - STORY GROUND DAYLT SENSOR 2,1.2656E-002
 Sky Daylight Factors,Clear Sky,08/21,ZONE OFFICE WHOLEBUILDING - MD OFFICE C  - STORY TOP DAYLIGHTINGCONTROLS,OFFICE WHOLEBUILDING - MD OFFICE C  - STORY TOP,SUB SURFACE 14,OFFICE WHOLEBUILDING - MD OFFICE C  - STORY TOP DAYLT SENSOR 1,3.1091E-002
 Sky Daylight Factors,Clear Sky,08/21,ZONE OFFICE WHOLEBUILDING - MD OFFICE C  - STORY TOP DAYLIGHTINGCONTROLS,OFFICE WHOLEBUILDING - MD OFFICE C  - STORY TOP,SUB SURFACE 14,OFFICE WHOLEBUILDING - MD OFFICE C  - STORY TOP DAYLT SENSOR 2,1.5981E-002
 Sky Daylight Factors,Clear Turbid Sky,08/21,ZONE OFFICE WHOLEBUILDING - MD OFFICE C  - STORY TOP DAYLIGHTINGCONTROLS,OFFICE WHOLEBUILDING - MD OFFICE C  - STORY TOP,SUB SURFACE 14,OFFICE WHOLEBUILDING - MD OFFICE C  - STORY TOP DAYLT SENSOR 1,2.4375E-002
 Sky Daylight Factors,Clear Turbid Sky,08/21,ZONE OFFICE WHOLEBUILDING - MD OFFICE C  - STORY TOP DAYLIGHTINGCONTROLS,OFFICE WHOLEBUILDING - MD OFFICE C  - STORY TOP,SUB SURFACE 14,OFFICE WHOLEBUILDING - MD OFFICE C  - STORY TOP DAYLT SENSOR 2,1.2390E-002
 Sky Daylight Factors,Intermediate Sky,08/21,ZONE OFFICE WHOLEBUILDING - MD OFFICE C  - STORY TOP DAYLIGHTINGCONTROLS,OFFICE WHOLEBUILDING - MD OFFICE C  - STORY TOP,SUB SURFACE 14,OFFICE WHOLEBUILDING - MD OFFICE C  - STORY TOP DAYLT SENSOR 1,2.2383E-002
 Sky Daylight Factors,Intermediate Sky,08/21,ZONE OFFICE WHOLEBUILDING - MD OFFICE C  - STORY TOP DAYLIGHTINGCONTROLS,OFFICE WHOLEBUILDING - MD OFFICE C  - STORY TOP,SUB SURFACE 14,OFFICE WHOLEBUILDING - MD OFFICE C  - STORY TOP DAYLT SENSOR 2,8.8737E-003
 Sky Daylight Factors,Overcast Sky,08/21,ZONE OFFICE WHOLEBUILDING - MD OFFICE C  - STORY TOP DAYLIGHTINGCONTROLS,OFFICE WHOLEBUILDING - MD OFFICE C  - STORY TOP,SUB SURFACE 14,OFFICE WHOLEBUILDING - MD OFFICE C  - STORY TOP DAYLT SENSOR 1,3.4035E-002
 Sky Daylight Factors,Overcast Sky,08/21,ZONE OFFICE WHOLEBUILDING - MD OFFICE C  - STORY TOP DAYLIGHTINGCONTROLS,OFFICE WHOLEBUILDING - MD OFFICE C  - STORY TOP,SUB SURFACE 14,OFFICE WHOLEBUILDING - MD OFFICE C  - STORY TOP DAYLT SENSOR 2,1.2034E-002
! <Zone Sizing Information>, Zone Name, Load Type, Calc Des Load {W}, User Des Load {W}, Calc Des Air Flow Rate {m3/s}, User Des Air Flow Rate {m3/s}, Design Day Name, Date/Time of Peak, Temperature at Peak {C}, Humidity Ratio at Peak {kgWater/kgDryAir}, Floor Area {m2}, # Occupants, Calc Outdoor Air Flow Rate {m3/s}, Calc DOAS Heat Addition Rate {W}
 Zone Sizing Information, ZONE OFFICE WHOLEBUILDING - MD OFFICE A  - STORY GROUND, Cooling, 6348.31849, 7300.56627, 0.46079, 0.52991, KODIAK AUGUST .4% CONDNS DB=>MCWB, 8/21 15:00:00, 22.60000, 8.70767E-003, 68.27491, 25.00000, 2.94811E-002, 0.00000
 Zone Sizing Information, ZONE OFFICE WHOLEBUILDING - MD OFFICE A  - STORY GROUND, Heating, 6908.78823, 8635.98529, 0.19147, 0.23933, KODIAK ANN HTG 99.6% CONDNS DB, 1/21 08:00:00, -12.80000, 1.24844E-003, 68.27491, 25.00000, 2.94811E-002, 0.00000
 Zone Sizing Information, ZONE OFFICE WHOLEBUILDING - MD OFFICE A  - STORY TOP, Cooling, 7299.66976, 8394.62022, 0.52986, 0.60934, KODIAK AUGUST .4% CONDNS DB=>MCWB, 8/21 14:00:00, 22.60000, 8.70767E-003, 68.27491, 25.00000, 2.94811E-002, 0.00000
 Zone Sizing Information, ZONE OFFICE WHOLEBUILDING - MD OFFICE A  - STORY TOP, Heating, 8036.71460, 10045.89324, 0.22279, 0.27849, KODIAK ANN HTG 99.6% CONDNS DB, 1/21 08:00:00, -12.80000, 1.24844E-003, 68.27491, 25.00000, 2.94811E-002, 0.00000
 Zone Sizing Information, ZONE OFFICE WHOLEBUILDING - MD OFFICE A END_A - STORY GROUND, Cooling, 3703.88460, 4259.46729, 0.26910, 0.30947, KODIAK AUGUST .4% CONDNS DB=>MCWB, 8/21 17:00:00, 21.71800, 8.70630E-003, 20.90318, 25.00000, 9.02599E-003, 0.00000
 Zone Sizing Information, ZONE OFFICE WHOLEBUILDING - MD OFFICE A END_A - STORY GROUND, Heating, 3742.04185, 4677.55231, 0.10380, 0.12975, KODIAK ANN HTG 99.6% CONDNS DB, 1/21 08:00:00, -12.80000, 1.24844E-003, 20.90318, 25.00000, 9.02599E-003, 0.00000
 Zone Sizing Information, ZONE OFFICE WHOLEBUILDING - MD OFFICE A END_A - STORY TOP, Cooling, 4052.77552, 4660.69185, 0.29441, 0.33857, KODIAK JULY .4% CONDNS DB=>MCWB, 7/21 17:00:00, 23.43000, 8.28374E-003, 20.90318, 25.00000, 9.02599E-003, 0.00000
 Zone Sizing Information, ZONE OFFICE WHOLEBUILDING - MD OFFICE A END_A - STORY TOP, Heating, 4171.90148, 5214.87685, 0.11572, 0.14465, KODIAK ANN HTG 99.6% CONDNS DB, 1/21 08:00:00, -12.80000, 1.24844E-003, 20.90318, 25.00000, 9.02599E-003, 0.00000
 Zone Sizing Information, ZONE OFFICE WHOLEBUILDING - MD OFFICE A END_B - STORY GROUND, Cooling, 3643.05994, 4189.51893, 0.26464, 0.30434, KODIAK JULY .4% CONDNS DB=>MCWB, 7/21 12:00:00, 23.48500, 8.28382E-003, 20.90318, 25.00000, 9.02599E-003, 0.00000
 Zone Sizing Information, ZONE OFFICE WHOLEBUILDING - MD OFFICE A END_B - STORY GROUND, Heating, 3725.10202, 4656.37753, 0.10333, 0.12916, KODIAK ANN HTG 99.6% CONDNS DB, 1/21 08:00:00, -12.80000, 1.24844E-003, 20.90318, 25.00000, 9.02599E-003, 0.00000
 Zone Sizing Information, ZONE OFFICE WHOLEBUILDING - MD OFFICE A END_B - STORY TOP, Cooling, 4046.64610, 4653.64302, 0.29392, 0.33800, KODIAK JULY .4% CONDNS DB=>MCWB, 7/21 12:00:00, 23.48500, 8.28382E-003, 20.90318, 25.00000, 9.02599E-003, 0.00000
 Zone Sizing Information, ZONE OFFICE WHOLEBUILDING - MD OFFICE A END_B - STORY TOP, Heating, 4151.64524, 5189.55655, 0.11516, 0.14395, KODIAK ANN HTG 99.6% CONDNS DB, 1/21 08:00:00, -12.80000, 1.24844E-003, 20.90318, 25.00000, 9.02599E-003, 0.00000
 Zone Sizing Information, ZONE OFFICE WHOLEBUILDING - MD OFFICE B  - STORY GROUND, Cooling, 5518.57866, 6346.36546, 0.38486, 0.44259, KODIAK JULY .4% CONDNS DB=>MCWB, 7/21 08:00:00, 20.13000, 8.27867E-003, 103.15178, 25.00000, 4.45409E-002, 0.00000
 Zone Sizing Information, ZONE OFFICE WHOLEBUILDING - MD OFFICE B  - STORY GROUND, Heating, 3630.27659, 4537.84574, 0.10025, 0.12531, KODIAK ANN HTG 99.6% CONDNS DB, 1/21 08:00:00, -12.80000, 1.24844E-003, 103.15178, 25.00000, 4.45409E-002, 0.00000
 Zone Sizing Information, ZONE OFFICE WHOLEBUILDING - MD OFFICE B  - STORY TOP, Cooling, 5888.72099, 6772.02913, 0.41070, 0.47231, KODIAK JULY .4% CONDNS DB=>MCWB, 7/21 08:00:00, 20.13000, 8.27867E-003, 103.15178, 25.00000, 4.45409E-002, 0.00000
 Zone Sizing Information, ZONE OFFICE WHOLEBUILDING - MD OFFICE B  - STORY TOP, Heating, 5129.50464, 6411.88080, 0.14183, 0.17729, KODIAK ANN HTG 99.6% CONDNS DB, 1/21 08:00:00, -12.80000, 1.24844E-003, 103.15178, 25.00000, 4.45409E-002, 0.00000
 Zone Sizing Information, ZONE OFFICE WHOLEBUILDING - MD OFFICE B END_A - STORY GROUND, Cooling, 3994.19226, 4593.32110, 0.29008, 0.33359, KODIAK JULY .4% CONDNS DB=>MCWB, 7/21 20:00:00, 21.45000, 8.28069E-003, 31.58115, 25.00000, 1.36367E-002, 0.00000
 Zone Sizing Information, ZONE OFFICE WHOLEBUILDING - MD OFFICE B END_A - STORY GROUND, Heating, 3562.91362, 4453.64203, 9.87698E-002, 0.12346, KODIAK ANN HTG 99.6% CONDNS DB, 1/21 08:00:00, -12.80000, 1.24844E-003, 31.58115, 25.00000, 1.36367E-002, 0.00000
 Zone Sizing Information, ZONE OFFICE WHOLEBUILDING - MD OFFICE B END_A - STORY TOP, Cooling, 4531.15307, 5210.82603, 0.32908, 0.37844, KODIAK JULY .4% CONDNS DB=>MCWB, 7/21 19:00:00, 22.05500, 8.28162E-003, 31.58115, 25.00000, 1.36367E-002, 0.00000
 Zone Sizing Information, ZONE OFFICE WHOLEBUILDING - MD OFFICE B END_A - STORY TOP, Heating, 4104.91828, 5131.14785, 0.11382, 0.14228, KODIAK ANN HTG 99.6% CONDNS DB, 1/21 08:00:00, -12.80000, 1.24844E-003, 31.58115, 25.00000, 1.36367E-002, 0.00000
 Zone Sizing Information, ZONE OFFICE WHOLEBUILDING - MD OFFICE B END_B - STORY GROUND, Cooling, 4086.69469, 4699.69890, 0.29666, 0.34116, KODIAK JULY .4% CONDNS DB=>MCWB, 7/21 10:00:00, 22.11000, 8.28170E-003, 31.58115, 25.00000, 1.36367E-002, 0.00000
 Zone Sizing Information, ZONE OFFICE WHOLEBUILDING - MD OFFICE B END_B - STORY GROUND, Heating, 3538.56393, 4423.20491, 9.80933E-002, 0.12262, KODIAK ANN HTG 99.6% CONDNS DB, 1/21 08:00:00, -12.80000, 1.24844E-003, 31.58115, 25.00000, 1.36367E-002, 0.00000
 Zone Sizing Information, ZONE OFFICE WHOLEBUILDING - MD OFFICE B END_B - STORY TOP, Cooling, 4724.02525, 5432.62903, 0.34240, 0.39376, KODIAK JULY .4% CONDNS DB=>MCWB, 7/21 09:00:00, 21.17500, 8.28027E-003, 31.58115, 25.00000, 1.36367E-002, 0.00000
 Zone Sizing Information, ZONE OFFICE WHOLEBUILDING - MD OFFICE B END_B - STORY TOP, Heating, 4075.69222, 5094.61527, 0.11301, 0.14126, KODIAK ANN HTG 99.6% CONDNS DB, 1/21 08:00:00, -12.80000, 1.24844E-003, 31.58115, 25.00000, 1.36367E-002, 0.00000
 Zone Sizing Information, ZONE OFFICE WHOLEBUILDING - MD OFFICE C  - STORY GROUND, Cooling, 4028.70414, 4633.00977, 0.28109, 0.32325, KODIAK JULY .4% CONDNS DB=>MCWB, 7/21 08:00:00, 20.13000, 8.27867E-003, 68.27491, 25.00000, 2.94811E-002, 0.00000
 Zone Sizing Information, ZONE OFFICE WHOLEBUILDING - MD OFFICE C  - STORY GROUND, Heating, 6954.23763, 8692.79704, 0.19273, 0.24091, KODIAK ANN HTG 99.6% CONDNS DB, 1/21 08:00:00, -12.80000, 1.24844E-003, 68.27491, 25.00000, 2.94811E-002, 0.00000
 Zone Sizing Information, ZONE OFFICE WHOLEBUILDING - MD OFFICE C  - STORY TOP, Cooling, 4547.85153, 5230.02926, 0.31735, 0.36495, KODIAK JULY .4% CONDNS DB=>MCWB, 7/21 08:00:00, 20.13000, 8.27867E-003, 68.27491, 25.00000, 2.94811E-002, 0.00000
 Zone Sizing Information, ZONE OFFICE WHOLEBUILDING - MD OFFICE C  - STORY TOP, Heating, 8091.17101, 10113.96377, 0.22431, 0.28038, KODIAK ANN HTG 99.6% CONDNS DB, 1/21 08:00:00, -12.80000, 1.24844E-003, 68.27491, 25.00000, 2.94811E-002, 0.00000
 Zone Sizing Information, ZONE OFFICE WHOLEBUILDING - MD OFFICE C END_A - STORY GROUND, Cooling, 3189.75224, 3668.21508, 0.23174, 0.26650, KODIAK JULY .4% CONDNS DB=>MCWB, 7/21 20:00:00, 21.45000, 8.28069E-003, 20.90318, 25.00000, 9.02599E-003, 0.00000
 Zone Sizing Information, ZONE OFFICE WHOLEBUILDING - MD OFFICE C END_A - STORY GROUND, Heating, 3758.84559, 4698.55699, 0.10426, 0.13033, KODIAK ANN HTG 99.6% CONDNS DB, 1/21 08:00:00, -12.80000, 1.24844E-003, 20.90318, 25.00000, 9.02599E-003, 0.00000
 Zone Sizing Information, ZONE OFFICE WHOLEBUILDING - MD OFFICE C END_A - STORY TOP, Cooling, 3556.04924, 4089.45663, 0.25834, 0.29710, KODIAK JULY .4% CONDNS DB=>MCWB, 7/21 19:00:00, 22.05500, 8.28162E-003, 20.90318, 25.00000, 9.02599E-003, 0.00000
 Zone Sizing Information, ZONE OFFICE WHOLEBUILDING - MD OFFICE C END_A - STORY TOP, Heating, 4192.08095, 5240.10119, 0.11628, 0.14535, KODIAK ANN HTG 99.6% CONDNS DB, 1/21 08:00:00, -12.80000, 1.24844E-003, 20.90318, 25.00000, 9.02599E-003, 0.00000
 Zone Sizing Information, ZONE OFFICE WHOLEBUILDING - MD OFFICE C END_B - STORY GROUND, Cooling, 3172.03476, 3647.83997, 0.23032, 0.26487, KODIAK JULY .4% CONDNS DB=>MCWB, 7/21 10:00:00, 22.11000, 8.28170E-003, 20.90318, 25.00000, 9.02599E-003, 0.00000
 Zone Sizing Information, ZONE OFFICE WHOLEBUILDING - MD OFFICE C END_B - STORY GROUND, Heating, 3741.99184, 4677.48980, 0.10380, 0.12974, KODIAK ANN HTG 99.6% CONDNS DB, 1/21 08:00:00, -12.80000, 1.24844E-003, 20.90318, 25.00000, 9.02599E-003, 0.00000
 Zone Sizing Information, ZONE OFFICE WHOLEBUILDING - MD OFFICE C END_B - STORY TOP, Cooling, 3664.97429, 4214.72044, 0.26563, 0.30547, KODIAK JULY .4% CONDNS DB=>MCWB, 7/21 09:00:00, 21.17500, 8.28027E-003, 20.90318, 25.00000, 9.02599E-003, 0.00000
 Zone Sizing Information, ZONE OFFICE WHOLEBUILDING - MD OFFICE C END_B - STORY TOP, Heating, 4171.82802, 5214.78503, 0.11572, 0.14465, KODIAK ANN HTG 99.6% CONDNS DB, 1/21 08:00:00, -12.80000, 1.24844E-003, 20.90318, 25.00000, 9.02599E-003, 0.00000
! <System Sizing Information>, System Name, Load Type, Peak Load Kind, User Design Capacity, Calc Des Air Flow Rate [m3/s], User Des Air Flow Rate [m3/s], Design Day Name, Date/Time of Peak
 System Sizing Information, ZONE OFFICE WHOLEBUILDING - MD OFFICE A  - STORY GROUND PSZ-AC, Cooling, Sensible, 7138.01, 0.52991, 0.52991, KODIAK AUGUST .4% CONDNS DB=>MCWB, 8/21 05:00:00
 System Sizing Information, ZONE OFFICE WHOLEBUILDING - MD OFFICE A  - STORY GROUND PSZ-AC, Heating, Sensible, 9681.20, 0.23933, 0.23933, KODIAK ANN HTG 99.6% CONDNS DB, 1/21 08:00:00
 System Sizing Information, ZONE OFFICE WHOLEBUILDING - MD OFFICE A  - STORY TOP PSZ-AC, Cooling, Sensible, 8215.16, 0.60934, 0.60934, KODIAK AUGUST .4% CONDNS DB=>MCWB, 8/21 05:00:00
 System Sizing Information, ZONE OFFICE WHOLEBUILDING - MD OFFICE A  - STORY TOP PSZ-AC, Heating, Sensible, 11070.98, 0.27849, 0.27849, KODIAK ANN HTG 99.6% CONDNS DB, 1/21 08:00:00
 System Sizing Information, ZONE OFFICE WHOLEBUILDING - MD OFFICE A END_A - STORY GROUND PSZ-AC, Cooling, Sensible, 4168.88, 0.30947, 0.30947, KODIAK AUGUST .4% CONDNS DB=>MCWB, 8/21 05:00:00
 System Sizing Information, ZONE OFFICE WHOLEBUILDING - MD OFFICE A END_A - STORY GROUND PSZ-AC, Heating, Sensible, 4968.60, 0.12975, 0.12975, KODIAK ANN HTG 99.6% CONDNS DB, 1/21 08:00:00
 System Sizing Information, ZONE OFFICE WHOLEBUILDING - MD OFFICE A END_A - STORY TOP PSZ-AC, Cooling, Sensible, 4582.58, 0.33857, 0.33857, KODIAK JULY .4% CONDNS DB=>MCWB, 7/21 05:00:00
 System Sizing Information, ZONE OFFICE WHOLEBUILDING - MD OFFICE A END_A - STORY TOP PSZ-AC, Heating, Sensible, 5498.25, 0.14465, 0.14465, KODIAK ANN HTG 99.6% CONDNS DB, 1/21 08:00:00
 System Sizing Information, ZONE OFFICE WHOLEBUILDING - MD OFFICE A END_B - STORY GROUND PSZ-AC, Cooling, Sensible, 4119.29, 0.30434, 0.30434, KODIAK JULY .4% CONDNS DB=>MCWB, 7/21 05:00:00
 System Sizing Information, ZONE OFFICE WHOLEBUILDING - MD OFFICE A END_B - STORY GROUND PSZ-AC, Heating, Sensible, 4947.73, 0.12916, 0.12916, KODIAK ANN HTG 99.6% CONDNS DB, 1/21 08:00:00
 System Sizing Information, ZONE OFFICE WHOLEBUILDING - MD OFFICE A END_B - STORY TOP PSZ-AC, Cooling, Sensible, 4576.22, 0.33800, 0.33800, KODIAK JULY .4% CONDNS DB=>MCWB, 7/21 05:00:00
 System Sizing Information, ZONE OFFICE WHOLEBUILDING - MD OFFICE A END_B - STORY TOP PSZ-AC, Heating, Sensible, 5473.29, 0.14395, 0.14395, KODIAK ANN HTG 99.6% CONDNS DB, 1/21 08:00:00
 System Sizing Information, ZONE OFFICE WHOLEBUILDING - MD OFFICE B  - STORY GROUND PSZ-AC, Cooling, Sensible, 5994.56, 0.44259, 0.44259, KODIAK JULY .4% CONDNS DB=>MCWB, 7/21 05:00:00
 System Sizing Information, ZONE OFFICE WHOLEBUILDING - MD OFFICE B  - STORY GROUND PSZ-AC, Heating, Sensible, 6243.58, 0.12531, 0.12531, KODIAK ANN HTG 99.6% CONDNS DB, 1/21 08:00:00
 System Sizing Information, ZONE OFFICE WHOLEBUILDING - MD OFFICE B  - STORY TOP PSZ-AC, Cooling, Sensible, 6414.23, 0.47231, 0.47231, KODIAK JULY .4% CONDNS DB=>MCWB, 7/21 05:00:00
 System Sizing Information, ZONE OFFICE WHOLEBUILDING - MD OFFICE B  - STORY TOP PSZ-AC, Heating, Sensible, 8086.85, 0.17729, 0.17729, KODIAK ANN HTG 99.6% CONDNS DB, 1/21 08:00:00
 System Sizing Information, ZONE OFFICE WHOLEBUILDING - MD OFFICE B END_A - STORY GROUND PSZ-AC, Cooling, Sensible, 4480.46, 0.33359, 0.33359, KODIAK JULY .4% CONDNS DB=>MCWB, 7/21 05:00:00
 System Sizing Information, ZONE OFFICE WHOLEBUILDING - MD OFFICE B END_A - STORY GROUND PSZ-AC, Heating, Sensible, 4930.59, 0.12346, 0.12346, KODIAK ANN HTG 99.6% CONDNS DB, 1/21 08:00:00
 System Sizing Information, ZONE OFFICE WHOLEBUILDING - MD OFFICE B END_A - STORY TOP PSZ-AC, Cooling, Sensible, 5098.39, 0.37844, 0.37844, KODIAK JULY .4% CONDNS DB=>MCWB, 7/21 05:00:00
 System Sizing Information, ZONE OFFICE WHOLEBUILDING - MD OFFICE B END_A - STORY TOP PSZ-AC, Heating, Sensible, 5598.42, 0.14228, 0.14228, KODIAK ANN HTG 99.6% CONDNS DB, 1/21 08:00:00
 System Sizing Information, ZONE OFFICE WHOLEBUILDING - MD OFFICE B END_B - STORY GROUND PSZ-AC, Cooling, Sensible, 4595.99, 0.34116, 0.34116, KODIAK JULY .4% CONDNS DB=>MCWB, 7/21 05:00:00
 System Sizing Information, ZONE OFFICE WHOLEBUILDING - MD OFFICE B END_B - STORY GROUND PSZ-AC, Heating, Sensible, 4900.58, 0.12262, 0.12262, KODIAK ANN HTG 99.6% CONDNS DB, 1/21 08:00:00
 System Sizing Information, ZONE OFFICE WHOLEBUILDING - MD OFFICE B END_B - STORY TOP PSZ-AC, Cooling, Sensible, 5301.88, 0.39376, 0.39376, KODIAK JULY .4% CONDNS DB=>MCWB, 7/21 05:00:00
 System Sizing Information, ZONE OFFICE WHOLEBUILDING - MD OFFICE B END_B - STORY TOP PSZ-AC, Heating, Sensible, 5562.41, 0.14126, 0.14126, KODIAK ANN HTG 99.6% CONDNS DB, 1/21 08:00:00
 System Sizing Information, ZONE OFFICE WHOLEBUILDING - MD OFFICE C  - STORY GROUND PSZ-AC, Cooling, Sensible, 4394.10, 0.32325, 0.32325, KODIAK JULY .4% CONDNS DB=>MCWB, 7/21 05:00:00
 System Sizing Information, ZONE OFFICE WHOLEBUILDING - MD OFFICE C  - STORY GROUND PSZ-AC, Heating, Sensible, 9737.21, 0.24091, 0.24091, KODIAK ANN HTG 99.6% CONDNS DB, 1/21 08:00:00
 System Sizing Information, ZONE OFFICE WHOLEBUILDING - MD OFFICE C  - STORY TOP PSZ-AC, Cooling, Sensible, 4982.71, 0.36495, 0.36495, KODIAK JULY .4% CONDNS DB=>MCWB, 7/21 05:00:00
 System Sizing Information, ZONE OFFICE WHOLEBUILDING - MD OFFICE C  - STORY TOP PSZ-AC, Heating, Sensible, 11138.08, 0.28038, 0.28038, KODIAK ANN HTG 99.6% CONDNS DB, 1/21 08:00:00
 System Sizing Information, ZONE OFFICE WHOLEBUILDING - MD OFFICE C END_A - STORY GROUND PSZ-AC, Cooling, Sensible, 3583.85, 0.26650, 0.26650, KODIAK JULY .4% CONDNS DB=>MCWB, 7/21 05:00:00
 System Sizing Information, ZONE OFFICE WHOLEBUILDING - MD OFFICE C END_A - STORY GROUND PSZ-AC, Heating, Sensible, 4989.31, 0.13033, 0.13033, KODIAK ANN HTG 99.6% CONDNS DB, 1/21 08:00:00
 System Sizing Information, ZONE OFFICE WHOLEBUILDING - MD OFFICE C END_A - STORY TOP PSZ-AC, Cooling, Sensible, 4010.78, 0.29710, 0.29710, KODIAK JULY .4% CONDNS DB=>MCWB, 7/21 05:00:00
 System Sizing Information, ZONE OFFICE WHOLEBUILDING - MD OFFICE C END_A - STORY TOP PSZ-AC, Heating, Sensible, 5523.11, 0.14535, 0.14535, KODIAK ANN HTG 99.6% CONDNS DB, 1/21 08:00:00
 System Sizing Information, ZONE OFFICE WHOLEBUILDING - MD OFFICE C END_B - STORY GROUND PSZ-AC, Cooling, Sensible, 3570.92, 0.26487, 0.26487, KODIAK JULY .4% CONDNS DB=>MCWB, 7/21 05:00:00
 System Sizing Information, ZONE OFFICE WHOLEBUILDING - MD OFFICE C END_B - STORY GROUND PSZ-AC, Heating, Sensible, 4968.54, 0.12974, 0.12974, KODIAK ANN HTG 99.6% CONDNS DB, 1/21 08:00:00
 System Sizing Information, ZONE OFFICE WHOLEBUILDING - MD OFFICE C END_B - STORY TOP PSZ-AC, Cooling, Sensible, 4118.61, 0.30547, 0.30547, KODIAK JULY .4% CONDNS DB=>MCWB, 7/21 05:00:00
 System Sizing Information, ZONE OFFICE WHOLEBUILDING - MD OFFICE C END_B - STORY TOP PSZ-AC, Heating, Sensible, 5498.16, 0.14465, 0.14465, KODIAK ANN HTG 99.6% CONDNS DB, 1/21 08:00:00
! <Component Sizing Information>, Component Type, Component Name, Input Field Description, Value
 Component Sizing Information, AirTerminal:SingleDuct:ConstantVolume:NoReheat, ZONE OFFICE WHOLEBUILDING - MD OFFICE A  - STORY GROUND PSZ-AC DIFFUSER, Design Size Maximum Air Flow Rate [m3/s], 0.52991
 Component Sizing Information, AirTerminal:SingleDuct:ConstantVolume:NoReheat, ZONE OFFICE WHOLEBUILDING - MD OFFICE A  - STORY TOP PSZ-AC DIFFUSER, Design Size Maximum Air Flow Rate [m3/s], 0.60934
 Component Sizing Information, AirTerminal:SingleDuct:ConstantVolume:NoReheat, ZONE OFFICE WHOLEBUILDING - MD OFFICE A END_A - STORY GROUND PSZ-AC DIFFUSER, Design Size Maximum Air Flow Rate [m3/s], 0.30947
 Component Sizing Information, AirTerminal:SingleDuct:ConstantVolume:NoReheat, ZONE OFFICE WHOLEBUILDING - MD OFFICE A END_A - STORY TOP PSZ-AC DIFFUSER, Design Size Maximum Air Flow Rate [m3/s], 0.33857
 Component Sizing Information, AirTerminal:SingleDuct:ConstantVolume:NoReheat, ZONE OFFICE WHOLEBUILDING - MD OFFICE A END_B - STORY GROUND PSZ-AC DIFFUSER, Design Size Maximum Air Flow Rate [m3/s], 0.30434
 Component Sizing Information, AirTerminal:SingleDuct:ConstantVolume:NoReheat, ZONE OFFICE WHOLEBUILDING - MD OFFICE A END_B - STORY TOP PSZ-AC DIFFUSER, Design Size Maximum Air Flow Rate [m3/s], 0.33800
 Component Sizing Information, AirTerminal:SingleDuct:ConstantVolume:NoReheat, ZONE OFFICE WHOLEBUILDING - MD OFFICE B  - STORY GROUND PSZ-AC DIFFUSER, Design Size Maximum Air Flow Rate [m3/s], 0.44259
 Component Sizing Information, AirTerminal:SingleDuct:ConstantVolume:NoReheat, ZONE OFFICE WHOLEBUILDING - MD OFFICE B  - STORY TOP PSZ-AC DIFFUSER, Design Size Maximum Air Flow Rate [m3/s], 0.47231
[...]
 Component Sizing Information, AirLoopHVAC:UnitarySystem, ZONE OFFICE WHOLEBUILDING - MD OFFICE C END_A - STORY TOP PSZ-AC UNITARY AC, Design Size Cooling Supply Air Flow Rate [m3/s], 0.29710
 Component Sizing Information, AirLoopHVAC:UnitarySystem, ZONE OFFICE WHOLEBUILDING - MD OFFICE C END_A - STORY TOP PSZ-AC UNITARY AC, User-Specified No Load Supply Air Flow Rate [m3/s], 0.00000
 Component Sizing Information, AirLoopHVAC:UnitarySystem, ZONE OFFICE WHOLEBUILDING - MD OFFICE C END_A - STORY TOP PSZ-AC UNITARY AC, Design Size Nominal Cooling Capacity [W], 5638.55835
 Component Sizing Information, Coil:Heating:Water, ZONE OFFICE WHOLEBUILDING - MD OFFICE C END_A - STORY TOP PSZ-AC WATER HTG COIL, Design Size Rated Capacity [W], 10908.05259
 Component Sizing Information, Coil:Heating:Water, ZONE OFFICE WHOLEBUILDING - MD OFFICE C END_A - STORY TOP PSZ-AC WATER HTG COIL, Design Size Maximum Water Flow Rate [m3/s], 2.38590E-004
 Component Sizing Information, Coil:Heating:Water, ZONE OFFICE WHOLEBUILDING - MD OFFICE C END_A - STORY TOP PSZ-AC WATER HTG COIL, Design Size U-Factor Times Area Value [W/K], 274.25058
Water Heating Coil Capacity Information,Coil:Heating:Water,ZONE OFFICE WHOLEBUILDING - MD OFFICE C END_A - STORY TOP PSZ-AC WATER HTG COIL,11451.44
 Component Sizing Information, AirLoopHVAC:UnitarySystem, ZONE OFFICE WHOLEBUILDING - MD OFFICE C END_A - STORY TOP PSZ-AC UNITARY AC, Design Size Nominal Heating Capacity [W], 10908.05259
 Component Sizing Information, AirLoopHVAC:UnitarySystem, ZONE OFFICE WHOLEBUILDING - MD OFFICE C END_A - STORY TOP PSZ-AC UNITARY AC, Design Size Maximum Supply Air Temperature [C], 50.00000
 Component Sizing Information, AirLoopHVAC:UnitarySystem, ZONE OFFICE WHOLEBUILDING - MD OFFICE C END_A - STORY TOP PSZ-AC UNITARY AC, User-Specified Maximum Supply Air Temperature [C], 80.00000
 Component Sizing Information, AirLoopHVAC:UnitarySystem, ZONE OFFICE WHOLEBUILDING - MD OFFICE C END_A - STORY TOP PSZ-AC UNITARY AC, User-Specified Supplemental Heating Coil Nominal Capacity [W], 10908.05259
 Component Sizing Information, AirLoopHVAC:UnitarySystem, ZONE OFFICE WHOLEBUILDING - MD OFFICE C END_A - STORY TOP PSZ-AC UNITARY AC, Fraction of Supply Air Flow That Goes Through the Controlling Zone, 1.00000
 Component Sizing Information, Coil:Cooling:DX:SingleSpeed, ZONE OFFICE WHOLEBUILDING - MD OFFICE C END_A - STORY TOP PSZ-AC 1SPD DX AC CLG COIL 9KBTU/HR 14.0SEER, Design Size Rated Air Flow Rate [m3/s], 0.29710
 Component Sizing Information, Coil:Cooling:DX:SingleSpeed, ZONE OFFICE WHOLEBUILDING - MD OFFICE C END_A - STORY TOP PSZ-AC 1SPD DX AC CLG COIL 9KBTU/HR 14.0SEER, Design Size Gross Rated Total Cooling Capacity [W], 5638.55835
 Component Sizing Information, Coil:Cooling:DX:SingleSpeed, ZONE OFFICE WHOLEBUILDING - MD OFFICE C END_A - STORY TOP PSZ-AC 1SPD DX AC CLG COIL 9KBTU/HR 14.0SEER, Design Size Gross Rated Sensible Heat Ratio, 0.79767
 DX Cooling Coil Standard Rating Information, Coil:Cooling:DX:SingleSpeed, ZONE OFFICE WHOLEBUILDING - MD OFFICE C END_A - STORY TOP PSZ-AC 1SPD DX AC CLG COIL 9KBTU/HR 14.0SEER, 5405.3, 3.38, 11.53, 11.42, 11.42, 11.41
 DX Cooling Coil Standard Rating Information, Coil:Cooling:DX:SingleSpeed, ZONE OFFICE WHOLEBUILDING - MD OFFICE C END_A - STORY TOP PSZ-AC 1SPD DX AC CLG COIL 9KBTU/HR 14.0SEER, 5357.4, 3.25, 11.10, 10.97, 11.28,  
 Component Sizing Information, Fan:OnOff, ZONE OFFICE WHOLEBUILDING - MD OFFICE C END_A - STORY TOP PSZ-AC FAN, Design Size Maximum Flow Rate [m3/s], 0.29710
 Component Sizing Information, Coil:Heating:Electric, ZONE OFFICE WHOLEBUILDING - MD OFFICE C END_A - STORY TOP PSZ-AC ELECTRIC BACKUP HTG COIL, Design Size Nominal Capacity [W], 10908.05259
 Component Sizing Information, Controller:OutdoorAir, ZONE OFFICE WHOLEBUILDING - MD OFFICE C END_B - STORY GROUND PSZ-AC OA SYSTEM CONTROLLER, Maximum Outdoor Air Flow Rate [m3/s], 0.26487
 Component Sizing Information, Controller:OutdoorAir, ZONE OFFICE WHOLEBUILDING - MD OFFICE C END_B - STORY GROUND PSZ-AC OA SYSTEM CONTROLLER, Minimum Outdoor Air Flow Rate [m3/s], 9.02599E-003
 Component Sizing Information, AirLoopHVAC:UnitarySystem, ZONE OFFICE WHOLEBUILDING - MD OFFICE C END_B - STORY GROUND PSZ-AC UNITARY AC, Design Size Supply Air Flow Rate [m3/s], 0.26487
 Component Sizing Information, AirLoopHVAC:UnitarySystem, ZONE OFFICE WHOLEBUILDING - MD OFFICE C END_B - STORY GROUND PSZ-AC UNITARY AC, Design Size Heating Supply Air Flow Rate [m3/s], 0.26487
 Component Sizing Information, AirLoopHVAC:UnitarySystem, ZONE OFFICE WHOLEBUILDING - MD OFFICE C END_B - STORY GROUND PSZ-AC UNITARY AC, Design Size Cooling Supply Air Flow Rate [m3/s], 0.26487
 Component Sizing Information, AirLoopHVAC:UnitarySystem, ZONE OFFICE WHOLEBUILDING - MD OFFICE C END_B - STORY GROUND PSZ-AC UNITARY AC, User-Specified No Load Supply Air Flow Rate [m3/s], 0.00000
 Component Sizing Information, AirLoopHVAC:UnitarySystem, ZONE OFFICE WHOLEBUILDING - MD OFFICE C END_B - STORY GROUND PSZ-AC UNITARY AC, Design Size Nominal Cooling Capacity [W], 5118.86995
 Component Sizing Information, Coil:Heating:Water, ZONE OFFICE WHOLEBUILDING - MD OFFICE C END_B - STORY GROUND PSZ-AC WATER HTG COIL, Design Size Rated Capacity [W], 9762.79605
 Component Sizing Information, Coil:Heating:Water, ZONE OFFICE WHOLEBUILDING - MD OFFICE C END_B - STORY GROUND PSZ-AC WATER HTG COIL, Design Size Maximum Water Flow Rate [m3/s], 2.13540E-004
 Component Sizing Information, Coil:Heating:Water, ZONE OFFICE WHOLEBUILDING - MD OFFICE C END_B - STORY GROUND PSZ-AC WATER HTG COIL, Design Size U-Factor Times Area Value [W/K], 245.10945
Water Heating Coil Capacity Information,Coil:Heating:Water,ZONE OFFICE WHOLEBUILDING - MD OFFICE C END_B - STORY GROUND PSZ-AC WATER HTG COIL,10229.21
 Component Sizing Information, AirLoopHVAC:UnitarySystem, ZONE OFFICE WHOLEBUILDING - MD OFFICE C END_B - STORY GROUND PSZ-AC UNITARY AC, Design Size Nominal Heating Capacity [W], 9762.79605
 Component Sizing Information, AirLoopHVAC:UnitarySystem, ZONE OFFICE WHOLEBUILDING - MD OFFICE C END_B - STORY GROUND PSZ-AC UNITARY AC, Design Size Maximum Supply Air Temperature [C], 50.00000
 Component Sizing Information, AirLoopHVAC:UnitarySystem, ZONE OFFICE WHOLEBUILDING - MD OFFICE C END_B - STORY GROUND PSZ-AC UNITARY AC, User-Specified Maximum Supply Air Temperature [C], 80.00000
 Component Sizing Information, AirLoopHVAC:UnitarySystem, ZONE OFFICE WHOLEBUILDING - MD OFFICE C END_B - STORY GROUND PSZ-AC UNITARY AC, User-Specified Supplemental Heating Coil Nominal Capacity [W], 9762.79605
 Component Sizing Information, AirLoopHVAC:UnitarySystem, ZONE OFFICE WHOLEBUILDING - MD OFFICE C END_B - STORY GROUND PSZ-AC UNITARY AC, Fraction of Supply Air Flow That Goes Through the Controlling Zone, 1.00000
 Component Sizing Information, Coil:Cooling:DX:SingleSpeed, ZONE OFFICE WHOLEBUILDING - MD OFFICE C END_B - STORY GROUND PSZ-AC 1SPD DX AC CLG COIL 7KBTU/HR 14.0SEER, Design Size Rated Air Flow Rate [m3/s], 0.26487
 Component Sizing Information, Coil:Cooling:DX:SingleSpeed, ZONE OFFICE WHOLEBUILDING - MD OFFICE C END_B - STORY GROUND PSZ-AC 1SPD DX AC CLG COIL 7KBTU/HR 14.0SEER, Design Size Gross Rated Total Cooling Capacity [W], 5118.86995
 Component Sizing Information, Coil:Cooling:DX:SingleSpeed, ZONE OFFICE WHOLEBUILDING - MD OFFICE C END_B - STORY GROUND PSZ-AC 1SPD DX AC CLG COIL 7KBTU/HR 14.0SEER, Design Size Gross Rated Sensible Heat Ratio, 0.78992
 DX Cooling Coil Standard Rating Information, Coil:Cooling:DX:SingleSpeed, ZONE OFFICE WHOLEBUILDING - MD OFFICE C END_B - STORY GROUND PSZ-AC 1SPD DX AC CLG COIL 7KBTU/HR 14.0SEER, 4910.8, 3.39, 11.57, 11.46, 11.46, 11.47
 DX Cooling Coil Standard Rating Information, Coil:Cooling:DX:SingleSpeed, ZONE OFFICE WHOLEBUILDING - MD OFFICE C END_B - STORY GROUND PSZ-AC 1SPD DX AC CLG COIL 7KBTU/HR 14.0SEER, 4868.2, 3.26, 11.14, 11.02, 11.33,  
 Component Sizing Information, Fan:OnOff, ZONE OFFICE WHOLEBUILDING - MD OFFICE C END_B - STORY GROUND PSZ-AC FAN, Design Size Maximum Flow Rate [m3/s], 0.26487
 Component Sizing Information, Coil:Heating:Electric, ZONE OFFICE WHOLEBUILDING - MD OFFICE C END_B - STORY GROUND PSZ-AC ELECTRIC BACKUP HTG COIL, Design Size Nominal Capacity [W], 9762.79605
 Component Sizing Information, Controller:OutdoorAir, ZONE OFFICE WHOLEBUILDING - MD OFFICE C END_B - STORY TOP PSZ-AC OA SYSTEM CONTROLLER, Maximum Outdoor Air Flow Rate [m3/s], 0.30547
 Component Sizing Information, Controller:OutdoorAir, ZONE OFFICE WHOLEBUILDING - MD OFFICE C END_B - STORY TOP PSZ-AC OA SYSTEM CONTROLLER, Minimum Outdoor Air Flow Rate [m3/s], 9.02599E-003
 Component Sizing Information, AirLoopHVAC:UnitarySystem, ZONE OFFICE WHOLEBUILDING - MD OFFICE C END_B - STORY TOP PSZ-AC UNITARY AC, Design Size Supply Air Flow Rate [m3/s], 0.30547
 Component Sizing Information, AirLoopHVAC:UnitarySystem, ZONE OFFICE WHOLEBUILDING - MD OFFICE C END_B - STORY TOP PSZ-AC UNITARY AC, Design Size Heating Supply Air Flow Rate [m3/s], 0.30547
 Component Sizing Information, AirLoopHVAC:UnitarySystem, ZONE OFFICE WHOLEBUILDING - MD OFFICE C END_B - STORY TOP PSZ-AC UNITARY AC, Design Size Cooling Supply Air Flow Rate [m3/s], 0.30547
 Component Sizing Information, AirLoopHVAC:UnitarySystem, ZONE OFFICE WHOLEBUILDING - MD OFFICE C END_B - STORY TOP PSZ-AC UNITARY AC, User-Specified No Load Supply Air Flow Rate [m3/s], 0.00000
 Component Sizing Information, AirLoopHVAC:UnitarySystem, ZONE OFFICE WHOLEBUILDING - MD OFFICE C END_B - STORY TOP PSZ-AC UNITARY AC, Design Size Nominal Cooling Capacity [W], 5803.99717
 Component Sizing Information, Coil:Heating:Water, ZONE OFFICE WHOLEBUILDING - MD OFFICE C END_B - STORY TOP PSZ-AC WATER HTG COIL, Design Size Rated Capacity [W], 11205.30713
 Component Sizing Information, Coil:Heating:Water, ZONE OFFICE WHOLEBUILDING - MD OFFICE C END_B - STORY TOP PSZ-AC WATER HTG COIL, Design Size Maximum Water Flow Rate [m3/s], 2.45092E-004
 Component Sizing Information, Coil:Heating:Water, ZONE OFFICE WHOLEBUILDING - MD OFFICE C END_B - STORY TOP PSZ-AC WATER HTG COIL, Design Size U-Factor Times Area Value [W/K], 281.81356
Water Heating Coil Capacity Information,Coil:Heating:Water,ZONE OFFICE WHOLEBUILDING - MD OFFICE C END_B - STORY TOP PSZ-AC WATER HTG COIL,11768.80
 Component Sizing Information, AirLoopHVAC:UnitarySystem, ZONE OFFICE WHOLEBUILDING - MD OFFICE C END_B - STORY TOP PSZ-AC UNITARY AC, Design Size Nominal Heating Capacity [W], 11205.30713
 Component Sizing Information, AirLoopHVAC:UnitarySystem, ZONE OFFICE WHOLEBUILDING - MD OFFICE C END_B - STORY TOP PSZ-AC UNITARY AC, Design Size Maximum Supply Air Temperature [C], 50.00000
 Component Sizing Information, AirLoopHVAC:UnitarySystem, ZONE OFFICE WHOLEBUILDING - MD OFFICE C END_B - STORY TOP PSZ-AC UNITARY AC, User-Specified Maximum Supply Air Temperature [C], 80.00000
 Component Sizing Information, AirLoopHVAC:UnitarySystem, ZONE OFFICE WHOLEBUILDING - MD OFFICE C END_B - STORY TOP PSZ-AC UNITARY AC, User-Specified Supplemental Heating Coil Nominal Capacity [W], 11205.30713
 Component Sizing Information, AirLoopHVAC:UnitarySystem, ZONE OFFICE WHOLEBUILDING - MD OFFICE C END_B - STORY TOP PSZ-AC UNITARY AC, Fraction of Supply Air Flow That Goes Through the Controlling Zone, 1.00000
 Component Sizing Information, Coil:Cooling:DX:SingleSpeed, ZONE OFFICE WHOLEBUILDING - MD OFFICE C END_B - STORY TOP PSZ-AC 1SPD DX AC CLG COIL 9KBTU/HR 14.0SEER, Design Size Rated Air Flow Rate [m3/s], 0.30547
 Component Sizing Information, Coil:Cooling:DX:SingleSpeed, ZONE OFFICE WHOLEBUILDING - MD OFFICE C END_B - STORY TOP PSZ-AC 1SPD DX AC CLG COIL 9KBTU/HR 14.0SEER, Design Size Gross Rated Total Cooling Capacity [W], 5803.99717
 Component Sizing Information, Coil:Cooling:DX:SingleSpeed, ZONE OFFICE WHOLEBUILDING - MD OFFICE C END_B - STORY TOP PSZ-AC 1SPD DX AC CLG COIL 9KBTU/HR 14.0SEER, Design Size Gross Rated Sensible Heat Ratio, 0.79732
 DX Cooling Coil Standard Rating Information, Coil:Cooling:DX:SingleSpeed, ZONE OFFICE WHOLEBUILDING - MD OFFICE C END_B - STORY TOP PSZ-AC 1SPD DX AC CLG COIL 9KBTU/HR 14.0SEER, 5564.1, 3.38, 11.53, 11.42, 11.42, 11.42
 DX Cooling Coil Standard Rating Information, Coil:Cooling:DX:SingleSpeed, ZONE OFFICE WHOLEBUILDING - MD OFFICE C END_B - STORY TOP PSZ-AC 1SPD DX AC CLG COIL 9KBTU/HR 14.0SEER, 5514.9, 3.25, 11.10, 10.97, 11.29,  
 Component Sizing Information, Fan:OnOff, ZONE OFFICE WHOLEBUILDING - MD OFFICE C END_B - STORY TOP PSZ-AC FAN, Design Size Maximum Flow Rate [m3/s], 0.30547
 Component Sizing Information, Coil:Heating:Electric, ZONE OFFICE WHOLEBUILDING - MD OFFICE C END_B - STORY TOP PSZ-AC ELECTRIC BACKUP HTG COIL, Design Size Nominal Capacity [W], 11205.30713
Water Heater Information,WaterHeater:Mixed,40GAL ELECTRICITY WATER HEATER - 40KBTU/HR 1.0 THERM EFF 1.0 THERM EFF,0.1514,11722.8,3.751,0.4632
Water Heater Information,WaterHeater:Mixed,40GAL NATURALGAS WATER HEATER - 5KBTU/HR 0.82 THERM EFF,0.1514,1387.8,0.164,0.9863
 Component Sizing Information, PlantLoop, HOT WATER LOOP, Maximum Loop Flow Rate [m3/s], 5.42616E-003
 Component Sizing Information, PlantLoop, HOT WATER LOOP, Plant Loop Volume [m3], 0.65114
 Component Sizing Information, Pump:VariableSpeed, HOT WATER LOOP PUMP, Design Flow Rate [m3/s], 5.42616E-003
 Component Sizing Information, Pump:VariableSpeed, HOT WATER LOOP PUMP, Design Power Consumption [W], 1442.34422
 Component Sizing Information, DistrictHeating, HOT WATER LOOP DISTRICT HEATING, Design Size Nominal Capacity [W], 253070.26738
 Component Sizing Information, PlantLoop, MAIN SERVICE WATER LOOP, Maximum Loop Flow Rate [m3/s], 0.00000
 Component Sizing Information, PlantLoop, MAIN SERVICE WATER LOOP, Plant Loop Volume [m3], 0.00000
 Component Sizing Information, Pump:VariableSpeed, MAIN SERVICE WATER LOOP WATER MAINS PRESSURE DRIVEN, Design Flow Rate [m3/s], 0.00000
 Component Sizing Information, Pump:VariableSpeed, MAIN SERVICE WATER LOOP WATER MAINS PRESSURE DRIVEN, Design Power Consumption [W], 0.00000
 Component Sizing Information, WaterHeater:Mixed, 40GAL ELECTRICITY WATER HEATER - 40KBTU/HR 1.0 THERM EFF 1.0 THERM EFF, Use Side Design Flow Rate [m3/s], 0.00000
 Component Sizing Information, PlantLoop, OFFICE SHARED SERVICE WATER LOOP, Maximum Loop Flow Rate [m3/s], 8.31979E-006
 Component Sizing Information, PlantLoop, OFFICE SHARED SERVICE WATER LOOP, Plant Loop Volume [m3], 9.98375E-004
 Component Sizing Information, Pump:ConstantSpeed, OFFICE SHARED SERVICE WATER LOOP CIRCULATOR PUMP, Design Flow Rate [m3/s], 8.31979E-006
 Component Sizing Information, Pump:ConstantSpeed, OFFICE SHARED SERVICE WATER LOOP CIRCULATOR PUMP, Design Power Consumption [W], 0.45547
 Component Sizing Information, WaterHeater:Mixed, 40GAL NATURALGAS WATER HEATER - 5KBTU/HR 0.82 THERM EFF, Use Side Design Flow Rate [m3/s], 8.31979E-006
! <Environment>,Environment Name,Environment Type, Start Date, End Date, Start DayOfWeek, Duration {#days}, Source:Start DayOfWeek,  Use Daylight Saving, Use Holidays, Apply Weekend Holiday Rule,  Use Rain Values, Use Snow Values, Sky Temperature Model
! <Environment:Special Days>, Special Day Name, Special Day Type, Source, Start Date, Duration {#days}
! <Environment:Daylight Saving>, Daylight Saving Indicator, Source, Start Date, End Date
! <Environment:WarmupDays>, NumberofWarmupDays
Environment,RUN PERIOD 1,WeatherFileRunPeriod,01/01/2006,12/31/2006,Sunday,365,Use RunPeriod Specified Day,No,No,No,Yes,Yes,Clark and Allen
Environment:Daylight Saving,Yes,InputFile,03/12,11/05
Environment:WarmupDays,  9
! <Tabular Report>,Style,Unit Conversion
Tabular Report,HTML,None
! <Warmup Convergence Information>,Zone Name,Environment Type/Name,Average Warmup Temperature Difference {deltaC},Std Dev Warmup Temperature Difference {deltaC},Max Temperature Pass/Fail Convergence,Min Temperature Pass/Fail Convergence,Average Warmup Load Difference {W},Std Dev Warmup Load Difference {W},Heating Load Pass/Fail Convergence,Cooling Load Pass/Fail Convergence
 Warmup Convergence Information,ZONE OFFICE WHOLEBUILDING - MD OFFICE A  - STORY GROUND,RunPeriod: RUN PERIOD 1,2.5345402745E-004,2.5766366080E-004,Pass,Pass,0.5233266736,0.9481314452,Pass,Pass
 Warmup Convergence Information,ZONE OFFICE WHOLEBUILDING - MD OFFICE A  - STORY TOP,RunPeriod: RUN PERIOD 1,8.0803572650E-003,2.4953274736E-002,Pass,Pass,0.6505267790,1.4380917011,Pass,Pass
 Warmup Convergence Information,ZONE OFFICE WHOLEBUILDING - MD OFFICE A END_A - STORY GROUND,RunPeriod: RUN PERIOD 1,2.7879424126E-004,3.0263671017E-004,Pass,Pass,0.1412191712,9.8854180349E-002,Pass,Pass
 Warmup Convergence Information,ZONE OFFICE WHOLEBUILDING - MD OFFICE A END_A - STORY TOP,RunPeriod: RUN PERIOD 1,3.0225978702E-004,2.8374057545E-004,Pass,Pass,0.1646061580,0.1078131814,Pass,Pass
 Warmup Convergence Information,ZONE OFFICE WHOLEBUILDING - MD OFFICE A END_B - STORY GROUND,RunPeriod: RUN PERIOD 1,2.9834227000E-004,3.0888905720E-004,Pass,Pass,0.1697634991,0.1723566993,Pass,Pass
 Warmup Convergence Information,ZONE OFFICE WHOLEBUILDING - MD OFFICE A END_B - STORY TOP,RunPeriod: RUN PERIOD 1,3.0575571839E-004,3.0260715835E-004,Pass,Pass,0.1887461887,0.1697429752,Pass,Pass
 Warmup Convergence Information,ZONE OFFICE WHOLEBUILDING - MD OFFICE B  - STORY GROUND,RunPeriod: RUN PERIOD 1,2.7510634981E-002,4.2104268117E-002,Pass,Pass,0.1605316635,0.3857313783,Pass,Pass
 Warmup Convergence Information,ZONE OFFICE WHOLEBUILDING - MD OFFICE B  - STORY TOP,RunPeriod: RUN PERIOD 1,3.5498959087E-002,5.5718209298E-002,Pass,Pass,9.4873420082E-002,0.1613047664,Pass,Pass
 Warmup Convergence Information,ZONE OFFICE WHOLEBUILDING - MD OFFICE B END_A - STORY GROUND,RunPeriod: RUN PERIOD 1,2.5412258442E-004,2.6421136027E-004,Pass,Pass,9.8359567105E-002,7.8812901096E-002,Pass,Pass
 Warmup Convergence Information,ZONE OFFICE WHOLEBUILDING - MD OFFICE B END_A - STORY TOP,RunPeriod: RUN PERIOD 1,1.9261864869E-004,1.4722235238E-004,Pass,Pass,0.1190502414,9.4191496674E-002,Pass,Pass
 Warmup Convergence Information,ZONE OFFICE WHOLEBUILDING - MD OFFICE B END_B - STORY GROUND,RunPeriod: RUN PERIOD 1,1.7687816164E-004,1.6238235045E-004,Pass,Pass,0.1208607755,9.2529458373E-002,Pass,Pass
 Warmup Convergence Information,ZONE OFFICE WHOLEBUILDING - MD OFFICE B END_B - STORY TOP,RunPeriod: RUN PERIOD 1,2.7669506652E-004,3.0692113800E-004,Pass,Pass,0.1373903341,0.1061972896,Pass,Pass
 Warmup Convergence Information,ZONE OFFICE WHOLEBUILDING - MD OFFICE C  - STORY GROUND,RunPeriod: RUN PERIOD 1,2.7254356806E-004,2.5446969137E-004,Pass,Pass,8.2325705418E-002,6.1811476258E-002,Pass,Pass
 Warmup Convergence Information,ZONE OFFICE WHOLEBUILDING - MD OFFICE C  - STORY TOP,RunPeriod: RUN PERIOD 1,2.3360898474E-004,2.7457196316E-004,Pass,Pass,0.1035072620,7.6528997009E-002,Pass,Pass
 Warmup Convergence Information,ZONE OFFICE WHOLEBUILDING - MD OFFICE C END_A - STORY GROUND,RunPeriod: RUN PERIOD 1,3.7929940166E-004,3.9832704453E-004,Pass,Pass,8.5926636177E-002,6.2312807358E-002,Pass,Pass
 Warmup Convergence Information,ZONE OFFICE WHOLEBUILDING - MD OFFICE C END_A - STORY TOP,RunPeriod: RUN PERIOD 1,5.7583642515E-004,5.1037574922E-004,Pass,Pass,0.1125268108,7.8345354911E-002,Pass,Pass
 Warmup Convergence Information,ZONE OFFICE WHOLEBUILDING - MD OFFICE C END_B - STORY GROUND,RunPeriod: RUN PERIOD 1,3.3347122452E-004,2.8682486981E-004,Pass,Pass,8.6037390951E-002,6.5437352656E-002,Pass,Pass
 Warmup Convergence Information,ZONE OFFICE WHOLEBUILDING - MD OFFICE C END_B - STORY TOP,RunPeriod: RUN PERIOD 1,4.1618303997E-004,3.4501482014E-004,Pass,Pass,0.1085472036,8.3449420855E-002,Pass,Pass
! <Program Control Information:Threads/Parallel Sims>, Threading Supported,Maximum Number of Threads, Env Set Threads (OMP_NUM_THREADS), EP Env Set Threads (EP_OMP_NUM_THREADS), IDF Set Threads, Number of Threads Used (Interior Radiant Exchange), Number Nominal Surfaces, Number Parallel Sims
Program Control:Threads/Parallel Sims, No,1, N/A, N/A, N/A, N/A, N/A, N/A
End of Data
