Program Version,EnergyPlus, Version 23.1.0-87ed9199d4, YMD=2023.06.21 09:15,
   ** Warning ** Timestep: Requested number (1) is less than the suggested minimum of 4.
   **   ~~~   ** Please see entry for Timestep in Input/Output Reference for discussion of considerations.
   ************* Beginning Zone Sizing Calculations
   ** Warning ** ProcessScheduleInput: DecodeHHMMField, Invalid "until" field value is not a multiple of the minutes for each timestep: 00:10
   **   ~~~   ** Other errors may result. Occurred in Day Schedule=ZONE OFFICE WHOLEBUILDING - MD OFFICE A  - STORY GROUND PSZ-AC OCC SCH DEFAULT
   ** Warning ** ProcessScheduleInput: DecodeHHMMField, Invalid "until" field value is not a multiple of the minutes for each timestep: 21:30
   **   ~~~   ** Other errors may result. Occurred in Day Schedule=ZONE OFFICE WHOLEBUILDING - MD OFFICE A  - STORY GROUND PSZ-AC OCC SCH DEFAULT
   ** Warning ** ProcessScheduleInput: DecodeHHMMField, Invalid "until" field value is not a multiple of the minutes for each timestep: 07:20
   **   ~~~   ** Other errors may result. Occurred in Day Schedule=ZONE OFFICE WHOLEBUILDING - MD OFFICE A  - STORY GROUND PSZ-AC OCC SCH SATURDAY
   ** Warning ** ProcessScheduleInput: DecodeHHMMField, Invalid "until" field value is not a multiple of the minutes for each timestep: 12:59
   **   ~~~   ** Other errors may result. Occurred in Day Schedule=ZONE OFFICE WHOLEBUILDING - MD OFFICE A  - STORY GROUND PSZ-AC OCC SCH SATURDAY
   ** Warning ** ProcessScheduleInput: DecodeHHMMField, Invalid "until" field value is not a multiple of the minutes for each timestep: 00:10
   **   ~~~   ** Other errors may result. Occurred in Day Schedule=ZONE OFFICE WHOLEBUILDING - MD OFFICE A  - STORY TOP PSZ-AC OCC SCH DEFAULT
   ** Warning ** ProcessScheduleInput: DecodeHHMMField, Invalid "until" field value is not a multiple of the minutes for each timestep: 21:30
   **   ~~~   ** Other errors may result. Occurred in Day Schedule=ZONE OFFICE WHOLEBUILDING - MD OFFICE A  - STORY TOP PSZ-AC OCC SCH DEFAULT
   ** Warning ** ProcessScheduleInput: DecodeHHMMField, Invalid "until" field value is not a multiple of the minutes for each timestep: 07:20
   **   ~~~   ** Other errors may result. Occurred in Day Schedule=ZONE OFFICE WHOLEBUILDING - MD OFFICE A  - STORY TOP PSZ-AC OCC SCH SATURDAY
   ** Warning ** ProcessScheduleInput: DecodeHHMMField, Invalid "until" field value is not a multiple of the minutes for each timestep: 12:59
   **   ~~~   ** Other errors may result. Occurred in Day Schedule=ZONE OFFICE WHOLEBUILDING - MD OFFICE A  - STORY TOP PSZ-AC OCC SCH SATURDAY
   ** Warning ** ProcessScheduleInput: DecodeHHMMField, Invalid "until" field value is not a multiple of the minutes for each timestep: 00:10
   **   ~~~   ** Other errors may result. Occurred in Day Schedule=ZONE OFFICE WHOLEBUILDING - MD OFFICE A END_A - STORY GROUND PSZ-AC OCC SCH DEFAULT
   ** Warning ** ProcessScheduleInput: DecodeHHMMField, Invalid "until" field value is not a multiple of the minutes for each timestep: 21:30
   **   ~~~   ** Other errors may result. Occurred in Day Schedule=ZONE OFFICE WHOLEBUILDING - MD OFFICE A END_A - STORY GROUND PSZ-AC OCC SCH DEFAULT
   ** Warning ** ProcessScheduleInput: DecodeHHMMField, Invalid "until" field value is not a multiple of the minutes for each timestep: 07:20
   **   ~~~   ** Other errors may result. Occurred in Day Schedule=ZONE OFFICE WHOLEBUILDING - MD OFFICE A END_A - STORY GROUND PSZ-AC OCC SCH SATURDAY
   ** Warning ** ProcessScheduleInput: DecodeHHMMField, Invalid "until" field value is not a multiple of the minutes for each timestep: 12:59
   **   ~~~   ** Other errors may result. Occurred in Day Schedule=ZONE OFFICE WHOLEBUILDING - MD OFFICE A END_A - STORY GROUND PSZ-AC OCC SCH SATURDAY
   ** Warning ** ProcessScheduleInput: DecodeHHMMField, Invalid "until" field value is not a multiple of the minutes for each timestep: 00:10
   **   ~~~   ** Other errors may result. Occurred in Day Schedule=ZONE OFFICE WHOLEBUILDING - MD OFFICE A END_A - STORY TOP PSZ-AC OCC SCH DEFAULT
   ** Warning ** ProcessScheduleInput: DecodeHHMMField, Invalid "until" field value is not a multiple of the minutes for each timestep: 21:30
   **   ~~~   ** Other errors may result. Occurred in Day Schedule=ZONE OFFICE WHOLEBUILDING - MD OFFICE A END_A - STORY TOP PSZ-AC OCC SCH DEFAULT
   ** Warning ** ProcessScheduleInput: DecodeHHMMField, Invalid "until" field value is not a multiple of the minutes for each timestep: 07:20
   **   ~~~   ** Other errors may result. Occurred in Day Schedule=ZONE OFFICE WHOLEBUILDING - MD OFFICE A END_A - STORY TOP PSZ-AC OCC SCH SATURDAY
   ** Warning ** ProcessScheduleInput: DecodeHHMMField, Invalid "until" field value is not a multiple of the minutes for each timestep: 12:59
   **   ~~~   ** Other errors may result. Occurred in Day Schedule=ZONE OFFICE WHOLEBUILDING - MD OFFICE A END_A - STORY TOP PSZ-AC OCC SCH SATURDAY
   ** Warning ** ProcessScheduleInput: DecodeHHMMField, Invalid "until" field value is not a multiple of the minutes for each timestep: 00:10
   **   ~~~   ** Other errors may result. Occurred in Day Schedule=ZONE OFFICE WHOLEBUILDING - MD OFFICE A END_B - STORY GROUND PSZ-AC OCC SCH DEFAULT
   ** Warning ** ProcessScheduleInput: DecodeHHMMField, Invalid "until" field value is not a multiple of the minutes for each timestep: 21:30
   **   ~~~   ** Other errors may result. Occurred in Day Schedule=ZONE OFFICE WHOLEBUILDING - MD OFFICE A END_B - STORY GROUND PSZ-AC OCC SCH DEFAULT
   ** Warning ** ProcessScheduleInput: DecodeHHMMField, Invalid "until" field value is not a multiple of the minutes for each timestep: 07:20
   **   ~~~   ** Other errors may result. Occurred in Day Schedule=ZONE OFFICE WHOLEBUILDING - MD OFFICE A END_B - STORY GROUND PSZ-AC OCC SCH SATURDAY
   ** Warning ** ProcessScheduleInput: DecodeHHMMField, Invalid "until" field value is not a multiple of the minutes for each timestep: 12:59
   **   ~~~   ** Other errors may result. Occurred in Day Schedule=ZONE OFFICE WHOLEBUILDING - MD OFFICE A END_B - STORY GROUND PSZ-AC OCC SCH SATURDAY
   ** Warning ** ProcessScheduleInput: DecodeHHMMField, Invalid "until" field value is not a multiple of the minutes for each timestep: 00:10
   **   ~~~   ** Other errors may result. Occurred in Day Schedule=ZONE OFFICE WHOLEBUILDING - MD OFFICE A END_B - STORY TOP PSZ-AC OCC SCH DEFAULT
   ** Warning ** ProcessScheduleInput: DecodeHHMMField, Invalid "until" field value is not a multiple of the minutes for each timestep: 21:30
   **   ~~~   ** Other errors may result. Occurred in Day Schedule=ZONE OFFICE WHOLEBUILDING - MD OFFICE A END_B - STORY TOP PSZ-AC OCC SCH DEFAULT
   ** Warning ** ProcessScheduleInput: DecodeHHMMField, Invalid "until" field value is not a multiple of the minutes for each timestep: 07:20
   **   ~~~   ** Other errors may result. Occurred in Day Schedule=ZONE OFFICE WHOLEBUILDING - MD OFFICE A END_B - STORY TOP PSZ-AC OCC SCH SATURDAY
   ** Warning ** ProcessScheduleInput: DecodeHHMMField, Invalid "until" field value is not a multiple of the minutes for each timestep: 12:59
   **   ~~~   ** Other errors may result. Occurred in Day Schedule=ZONE OFFICE WHOLEBUILDING - MD OFFICE A END_B - STORY TOP PSZ-AC OCC SCH SATURDAY
   ** Warning ** ProcessScheduleInput: DecodeHHMMField, Invalid "until" field value is not a multiple of the minutes for each timestep: 00:10
   **   ~~~   ** Other errors may result. Occurred in Day Schedule=ZONE OFFICE WHOLEBUILDING - MD OFFICE B  - STORY GROUND PSZ-AC OCC SCH DEFAULT
   ** Warning ** ProcessScheduleInput: DecodeHHMMField, Invalid "until" field value is not a multiple of the minutes for each timestep: 21:30
   **   ~~~   ** Other errors may result. Occurred in Day Schedule=ZONE OFFICE WHOLEBUILDING - MD OFFICE B  - STORY GROUND PSZ-AC OCC SCH DEFAULT
   ** Warning ** ProcessScheduleInput: DecodeHHMMField, Invalid "until" field value is not a multiple of the minutes for each timestep: 07:20
   **   ~~~   ** Other errors may result. Occurred in Day Schedule=ZONE OFFICE WHOLEBUILDING - MD OFFICE B  - STORY GROUND PSZ-AC OCC SCH SATURDAY
   ** Warning ** ProcessScheduleInput: DecodeHHMMField, Invalid "until" field value is not a multiple of the minutes for each timestep: 12:59
   **   ~~~   ** Other errors may result. Occurred in Day Schedule=ZONE OFFICE WHOLEBUILDING - MD OFFICE B  - STORY GROUND PSZ-AC OCC SCH SATURDAY
   ** Warning ** ProcessScheduleInput: DecodeHHMMField, Invalid "until" field value is not a multiple of the minutes for each timestep: 00:10
   **   ~~~   ** Other errors may result. Occurred in Day Schedule=ZONE OFFICE WHOLEBUILDING - MD OFFICE B  - STORY TOP PSZ-AC OCC SCH DEFAULT
   ** Warning ** ProcessScheduleInput: DecodeHHMMField, Invalid "until" field value is not a multiple of the minutes for each timestep: 21:30
   **   ~~~   ** Other errors may result. Occurred in Day Schedule=ZONE OFFICE WHOLEBUILDING - MD OFFICE B  - STORY TOP PSZ-AC OCC SCH DEFAULT
   ** Warning ** ProcessScheduleInput: DecodeHHMMField, Invalid "until" field value is not a multiple of the minutes for each timestep: 07:20
   **   ~~~   ** Other errors may result. Occurred in Day Schedule=ZONE OFFICE WHOLEBUILDING - MD OFFICE B  - STORY TOP PSZ-AC OCC SCH SATURDAY
   ** Warning ** ProcessScheduleInput: DecodeHHMMField, Invalid "until" field value is not a multiple of the minutes for each timestep: 12:59
   **   ~~~   ** Other errors may result. Occurred in Day Schedule=ZONE OFFICE WHOLEBUILDING - MD OFFICE B  - STORY TOP PSZ-AC OCC SCH SATURDAY
   ** Warning ** ProcessScheduleInput: DecodeHHMMField, Invalid "until" field value is not a multiple of the minutes for each timestep: 00:10
   **   ~~~   ** Other errors may result. Occurred in Day Schedule=ZONE OFFICE WHOLEBUILDING - MD OFFICE B END_A - STORY GROUND PSZ-AC OCC SCH DEFAULT
   ** Warning ** ProcessScheduleInput: DecodeHHMMField, Invalid "until" field value is not a multiple of the minutes for each timestep: 21:30
   **   ~~~   ** Other errors may result. Occurred in Day Schedule=ZONE OFFICE WHOLEBUILDING - MD OFFICE B END_A - STORY GROUND PSZ-AC OCC SCH DEFAULT
   ** Warning ** ProcessScheduleInput: DecodeHHMMField, Invalid "until" field value is not a multiple of the minutes for each timestep: 07:20
   **   ~~~   ** Other errors may result. Occurred in Day Schedule=ZONE OFFICE WHOLEBUILDING - MD OFFICE B END_A - STORY GROUND PSZ-AC OCC SCH SATURDAY
   ** Warning ** ProcessScheduleInput: DecodeHHMMField, Invalid "until" field value is not a multiple of the minutes for each timestep: 12:59
   **   ~~~   ** Other errors may result. Occurred in Day Schedule=ZONE OFFICE WHOLEBUILDING - MD OFFICE B END_A - STORY GROUND PSZ-AC OCC SCH SATURDAY
   ** Warning ** ProcessScheduleInput: DecodeHHMMField, Invalid "until" field value is not a multiple of the minutes for each timestep: 00:10
   **   ~~~   ** Other errors may result. Occurred in Day Schedule=ZONE OFFICE WHOLEBUILDING - MD OFFICE B END_A - STORY TOP PSZ-AC OCC SCH DEFAULT
   ** Warning ** ProcessScheduleInput: DecodeHHMMField, Invalid "until" field value is not a multiple of the minutes for each timestep: 21:30
   **   ~~~   ** Other errors may result. Occurred in Day Schedule=ZONE OFFICE WHOLEBUILDING - MD OFFICE B END_A - STORY TOP PSZ-AC OCC SCH DEFAULT
   ** Warning ** ProcessScheduleInput: DecodeHHMMField, Invalid "until" field value is not a multiple of the minutes for each timestep: 07:20
   **   ~~~   ** Other errors may result. Occurred in Day Schedule=ZONE OFFICE WHOLEBUILDING - MD OFFICE B END_A - STORY TOP PSZ-AC OCC SCH SATURDAY
   ** Warning ** ProcessScheduleInput: DecodeHHMMField, Invalid "until" field value is not a multiple of the minutes for each timestep: 12:59
   **   ~~~   ** Other errors may result. Occurred in Day Schedule=ZONE OFFICE WHOLEBUILDING - MD OFFICE B END_A - STORY TOP PSZ-AC OCC SCH SATURDAY
   ** Warning ** ProcessScheduleInput: DecodeHHMMField, Invalid "until" field value is not a multiple of the minutes for each timestep: 00:10
   **   ~~~   ** Other errors may result. Occurred in Day Schedule=ZONE OFFICE WHOLEBUILDING - MD OFFICE B END_B - STORY GROUND PSZ-AC OCC SCH DEFAULT
   ** Warning ** ProcessScheduleInput: DecodeHHMMField, Invalid "until" field value is not a multiple of the minutes for each timestep: 21:30
   **   ~~~   ** Other errors may result. Occurred in Day Schedule=ZONE OFFICE WHOLEBUILDING - MD OFFICE B END_B - STORY GROUND PSZ-AC OCC SCH DEFAULT
   ** Warning ** ProcessScheduleInput: DecodeHHMMField, Invalid "until" field value is not a multiple of the minutes for each timestep: 07:20
   **   ~~~   ** Other errors may result. Occurred in Day Schedule=ZONE OFFICE WHOLEBUILDING - MD OFFICE B END_B - STORY GROUND PSZ-AC OCC SCH SATURDAY
   ** Warning ** ProcessScheduleInput: DecodeHHMMField, Invalid "until" field value is not a multiple of the minutes for each timestep: 12:59
   **   ~~~   ** Other errors may result. Occurred in Day Schedule=ZONE OFFICE WHOLEBUILDING - MD OFFICE B END_B - STORY GROUND PSZ-AC OCC SCH SATURDAY
   ** Warning ** ProcessScheduleInput: DecodeHHMMField, Invalid "until" field value is not a multiple of the minutes for each timestep: 00:10
   **   ~~~   ** Other errors may result. Occurred in Day Schedule=ZONE OFFICE WHOLEBUILDING - MD OFFICE B END_B - STORY TOP PSZ-AC OCC SCH DEFAULT
   ** Warning ** ProcessScheduleInput: DecodeHHMMField, Invalid "until" field value is not a multiple of the minutes for each timestep: 21:30
   **   ~~~   ** Other errors may result. Occurred in Day Schedule=ZONE OFFICE WHOLEBUILDING - MD OFFICE B END_B - STORY TOP PSZ-AC OCC SCH DEFAULT
   ** Warning ** ProcessScheduleInput: DecodeHHMMField, Invalid "until" field value is not a multiple of the minutes for each timestep: 07:20
   **   ~~~   ** Other errors may result. Occurred in Day Schedule=ZONE OFFICE WHOLEBUILDING - MD OFFICE B END_B - STORY TOP PSZ-AC OCC SCH SATURDAY
   ** Warning ** ProcessScheduleInput: DecodeHHMMField, Invalid "until" field value is not a multiple of the minutes for each timestep: 12:59
   **   ~~~   ** Other errors may result. Occurred in Day Schedule=ZONE OFFICE WHOLEBUILDING - MD OFFICE B END_B - STORY TOP PSZ-AC OCC SCH SATURDAY
   ** Warning ** ProcessScheduleInput: DecodeHHMMField, Invalid "until" field value is not a multiple of the minutes for each timestep: 00:10
   **   ~~~   ** Other errors may result. Occurred in Day Schedule=ZONE OFFICE WHOLEBUILDING - MD OFFICE C  - STORY GROUND PSZ-AC OCC SCH DEFAULT
   ** Warning ** ProcessScheduleInput: DecodeHHMMField, Invalid "until" field value is not a multiple of the minutes for each timestep: 21:30
   **   ~~~   ** Other errors may result. Occurred in Day Schedule=ZONE OFFICE WHOLEBUILDING - MD OFFICE C  - STORY GROUND PSZ-AC OCC SCH DEFAULT
   ** Warning ** ProcessScheduleInput: DecodeHHMMField, Invalid "until" field value is not a multiple of the minutes for each timestep: 07:20
   **   ~~~   ** Other errors may result. Occurred in Day Schedule=ZONE OFFICE WHOLEBUILDING - MD OFFICE C  - STORY GROUND PSZ-AC OCC SCH SATURDAY
   ** Warning ** ProcessScheduleInput: DecodeHHMMField, Invalid "until" field value is not a multiple of the minutes for each timestep: 12:59
   **   ~~~   ** Other errors may result. Occurred in Day Schedule=ZONE OFFICE WHOLEBUILDING - MD OFFICE C  - STORY GROUND PSZ-AC OCC SCH SATURDAY
   ** Warning ** ProcessScheduleInput: DecodeHHMMField, Invalid "until" field value is not a multiple of the minutes for each timestep: 00:10
   **   ~~~   ** Other errors may result. Occurred in Day Schedule=ZONE OFFICE WHOLEBUILDING - MD OFFICE C  - STORY TOP PSZ-AC OCC SCH DEFAULT
   ** Warning ** ProcessScheduleInput: DecodeHHMMField, Invalid "until" field value is not a multiple of the minutes for each timestep: 21:30
   **   ~~~   ** Other errors may result. Occurred in Day Schedule=ZONE OFFICE WHOLEBUILDING - MD OFFICE C  - STORY TOP PSZ-AC OCC SCH DEFAULT
   ** Warning ** ProcessScheduleInput: DecodeHHMMField, Invalid "until" field value is not a multiple of the minutes for each timestep: 07:20
   **   ~~~   ** Other errors may result. Occurred in Day Schedule=ZONE OFFICE WHOLEBUILDING - MD OFFICE C  - STORY TOP PSZ-AC OCC SCH SATURDAY
   ** Warning ** ProcessScheduleInput: DecodeHHMMField, Invalid "until" field value is not a multiple of the minutes for each timestep: 12:59
   **   ~~~   ** Other errors may result. Occurred in Day Schedule=ZONE OFFICE WHOLEBUILDING - MD OFFICE C  - STORY TOP PSZ-AC OCC SCH SATURDAY
   ** Warning ** ProcessScheduleInput: DecodeHHMMField, Invalid "until" field value is not a multiple of the minutes for each timestep: 00:10
   **   ~~~   ** Other errors may result. Occurred in Day Schedule=ZONE OFFICE WHOLEBUILDING - MD OFFICE C END_A - STORY GROUND PSZ-AC OCC SCH DEFAULT
   ** Warning ** ProcessScheduleInput: DecodeHHMMField, Invalid "until" field value is not a multiple of the minutes for each timestep: 21:30
   **   ~~~   ** Other errors may result. Occurred in Day Schedule=ZONE OFFICE WHOLEBUILDING - MD OFFICE C END_A - STORY GROUND PSZ-AC OCC SCH DEFAULT
   ** Warning ** ProcessScheduleInput: DecodeHHMMField, Invalid "until" field value is not a multiple of the minutes for each timestep: 07:20
   **   ~~~   ** Other errors may result. Occurred in Day Schedule=ZONE OFFICE WHOLEBUILDING - MD OFFICE C END_A - STORY GROUND PSZ-AC OCC SCH SATURDAY
   ** Warning ** ProcessScheduleInput: DecodeHHMMField, Invalid "until" field value is not a multiple of the minutes for each timestep: 12:59
   **   ~~~   ** Other errors may result. Occurred in Day Schedule=ZONE OFFICE WHOLEBUILDING - MD OFFICE C END_A - STORY GROUND PSZ-AC OCC SCH SATURDAY
   ** Warning ** ProcessScheduleInput: DecodeHHMMField, Invalid "until" field value is not a multiple of the minutes for each timestep: 00:10
   **   ~~~   ** Other errors may result. Occurred in Day Schedule=ZONE OFFICE WHOLEBUILDING - MD OFFICE C END_A - STORY TOP PSZ-AC OCC SCH DEFAULT
   ** Warning ** ProcessScheduleInput: DecodeHHMMField, Invalid "until" field value is not a multiple of the minutes for each timestep: 21:30
   **   ~~~   ** Other errors may result. Occurred in Day Schedule=ZONE OFFICE WHOLEBUILDING - MD OFFICE C END_A - STORY TOP PSZ-AC OCC SCH DEFAULT
   ** Warning ** ProcessScheduleInput: DecodeHHMMField, Invalid "until" field value is not a multiple of the minutes for each timestep: 07:20
   **   ~~~   ** Other errors may result. Occurred in Day Schedule=ZONE OFFICE WHOLEBUILDING - MD OFFICE C END_A - STORY TOP PSZ-AC OCC SCH SATURDAY
   ** Warning ** ProcessScheduleInput: DecodeHHMMField, Invalid "until" field value is not a multiple of the minutes for each timestep: 12:59
   **   ~~~   ** Other errors may result. Occurred in Day Schedule=ZONE OFFICE WHOLEBUILDING - MD OFFICE C END_A - STORY TOP PSZ-AC OCC SCH SATURDAY
   ** Warning ** ProcessScheduleInput: DecodeHHMMField, Invalid "until" field value is not a multiple of the minutes for each timestep: 00:10
   **   ~~~   ** Other errors may result. Occurred in Day Schedule=ZONE OFFICE WHOLEBUILDING - MD OFFICE C END_B - STORY GROUND PSZ-AC OCC SCH DEFAULT
   ** Warning ** ProcessScheduleInput: DecodeHHMMField, Invalid "until" field value is not a multiple of the minutes for each timestep: 21:30
   **   ~~~   ** Other errors may result. Occurred in Day Schedule=ZONE OFFICE WHOLEBUILDING - MD OFFICE C END_B - STORY GROUND PSZ-AC OCC SCH DEFAULT
   ** Warning ** ProcessScheduleInput: DecodeHHMMField, Invalid "until" field value is not a multiple of the minutes for each timestep: 07:20
   **   ~~~   ** Other errors may result. Occurred in Day Schedule=ZONE OFFICE WHOLEBUILDING - MD OFFICE C END_B - STORY GROUND PSZ-AC OCC SCH SATURDAY
   ** Warning ** ProcessScheduleInput: DecodeHHMMField, Invalid "until" field value is not a multiple of the minutes for each timestep: 12:59
   **   ~~~   ** Other errors may result. Occurred in Day Schedule=ZONE OFFICE WHOLEBUILDING - MD OFFICE C END_B - STORY GROUND PSZ-AC OCC SCH SATURDAY
   ** Warning ** ProcessScheduleInput: DecodeHHMMField, Invalid "until" field value is not a multiple of the minutes for each timestep: 00:10
   **   ~~~   ** Other errors may result. Occurred in Day Schedule=ZONE OFFICE WHOLEBUILDING - MD OFFICE C END_B - STORY TOP PSZ-AC OCC SCH DEFAULT
   ** Warning ** ProcessScheduleInput: DecodeHHMMField, Invalid "until" field value is not a multiple of the minutes for each timestep: 21:30
   **   ~~~   ** Other errors may result. Occurred in Day Schedule=ZONE OFFICE WHOLEBUILDING - MD OFFICE C END_B - STORY TOP PSZ-AC OCC SCH DEFAULT
   ** Warning ** ProcessScheduleInput: DecodeHHMMField, Invalid "until" field value is not a multiple of the minutes for each timestep: 07:20
   **   ~~~   ** Other errors may result. Occurred in Day Schedule=ZONE OFFICE WHOLEBUILDING - MD OFFICE C END_B - STORY TOP PSZ-AC OCC SCH SATURDAY
   ** Warning ** ProcessScheduleInput: DecodeHHMMField, Invalid "until" field value is not a multiple of the minutes for each timestep: 12:59
   **   ~~~   ** Other errors may result. Occurred in Day Schedule=ZONE OFFICE WHOLEBUILDING - MD OFFICE C END_B - STORY TOP PSZ-AC OCC SCH SATURDAY
   ** Warning ** ProcessScheduleInput: Schedule:Constant="TEMPORARY PIPE INDOOR AMBIENT TEMP 67.3F", Blank Schedule Type Limits Name input -- will not be validated.
   ** Warning ** ProcessScheduleInput: Schedule:Constant="ALWAYS OFF DISCRETE", Blank Schedule Type Limits Name input -- will not be validated.
   ** Warning ** ProcessScheduleInput: Schedule:Constant="ALWAYS ON CONTINUOUS", Blank Schedule Type Limits Name input -- will not be validated.
   ** Warning ** CheckUsedConstructions: There are 15 nominally unused constructions in input.
   **   ~~~   ** For explicit details on each unused construction, use Output:Diagnostics,DisplayExtraWarnings;
   ** Warning ** GetDaylightingControls: Fraction of zone or space controlled by the Daylighting reference points is < 1.0.
   **   ~~~   ** ..discovered in Daylighting:Controls="ZONE OFFICE WHOLEBUILDING - MD OFFICE A  - STORY GROUND DAYLIGHTINGCONTROLS", only 0.428 of the zone or space is controlled.
   ** Warning ** GetDaylightingControls: Fraction of zone or space controlled by the Daylighting reference points is < 1.0.
   **   ~~~   ** ..discovered in Daylighting:Controls="ZONE OFFICE WHOLEBUILDING - MD OFFICE A  - STORY TOP DAYLIGHTINGCONTROLS", only 0.428 of the zone or space is controlled.
   ** Warning ** GetDaylightingControls: Fraction of zone or space controlled by the Daylighting reference points is < 1.0.
   **   ~~~   ** ..discovered in Daylighting:Controls="ZONE OFFICE WHOLEBUILDING - MD OFFICE C  - STORY GROUND DAYLIGHTINGCONTROLS", only 0.428 of the zone or space is controlled.
   ** Warning ** GetDaylightingControls: Fraction of zone or space controlled by the Daylighting reference points is < 1.0.
   **   ~~~   ** ..discovered in Daylighting:Controls="ZONE OFFICE WHOLEBUILDING - MD OFFICE C  - STORY TOP DAYLIGHTINGCONTROLS", only 0.428 of the zone or space is controlled.
   ** Severe  ** WaterHeater:Mixed = 40GAL ELECTRICITY WATER HEATER - 40KBTU/HR 1.0 THERM EFF 1.0 THERM EFF:  Ambient Temperature Zone not found = 
   ************* Beginning System Sizing Calculations
   ** Warning ** AirLoopHVAC:UnitarySystem = ZONE OFFICE WHOLEBUILDING - MD OFFICE A  - STORY GROUND PSZ-AC UNITARY AC
   **   ~~~   ** Method used to determine the cooling supply air flow rate is not specified when cooling coil is present.
   ** Warning ** AirLoopHVAC:UnitarySystem = ZONE OFFICE WHOLEBUILDING - MD OFFICE A  - STORY GROUND PSZ-AC UNITARY AC
   **   ~~~   ** Method used to determine the heating supply air flow rate is not specified when heating coil is present.
   ** Warning ** AirLoopHVAC:UnitarySystem = ZONE OFFICE WHOLEBUILDING - MD OFFICE A  - STORY TOP PSZ-AC UNITARY AC
   **   ~~~   ** Method used to determine the cooling supply air flow rate is not specified when cooling coil is present.
   ** Warning ** AirLoopHVAC:UnitarySystem = ZONE OFFICE WHOLEBUILDING - MD OFFICE A  - STORY TOP PSZ-AC UNITARY AC
   **   ~~~   ** Method used to determine the heating supply air flow rate is not specified when heating coil is present.
   ** Warning ** AirLoopHVAC:UnitarySystem = ZONE OFFICE WHOLEBUILDING - MD OFFICE A END_A - STORY GROUND PSZ-AC UNITARY AC
   **   ~~~   ** Method used to determine the cooling supply air flow rate is not specified when cooling coil is present.
   ** Warning ** AirLoopHVAC:UnitarySystem = ZONE OFFICE WHOLEBUILDING - MD OFFICE A END_A - STORY GROUND PSZ-AC UNITARY AC
   **   ~~~   ** Method used to determine the heating supply air flow rate is not specified when heating coil is present.
   ** Warning ** AirLoopHVAC:UnitarySystem = ZONE OFFICE WHOLEBUILDING - MD OFFICE A END_A - STORY TOP PSZ-AC UNITARY AC
   **   ~~~   ** Method used to determine the cooling supply air flow rate is not specified when cooling coil is present.
   ** Warning ** AirLoopHVAC:UnitarySystem = ZONE OFFICE WHOLEBUILDING - MD OFFICE A END_A - STORY TOP PSZ-AC UNITARY AC
   **   ~~~   ** Method used to determine the heating supply air flow rate is not specified when heating coil is present.
   ** Warning ** AirLoopHVAC:UnitarySystem = ZONE OFFICE WHOLEBUILDING - MD OFFICE A END_B - STORY GROUND PSZ-AC UNITARY AC
   **   ~~~   ** Method used to determine the cooling supply air flow rate is not specified when cooling coil is present.
   ** Warning ** AirLoopHVAC:UnitarySystem = ZONE OFFICE WHOLEBUILDING - MD OFFICE A END_B - STORY GROUND PSZ-AC UNITARY AC
   **   ~~~   ** Method used to determine the heating supply air flow rate is not specified when heating coil is present.
   ** Warning ** AirLoopHVAC:UnitarySystem = ZONE OFFICE WHOLEBUILDING - MD OFFICE A END_B - STORY TOP PSZ-AC UNITARY AC
   **   ~~~   ** Method used to determine the cooling supply air flow rate is not specified when cooling coil is present.
   ** Warning ** AirLoopHVAC:UnitarySystem = ZONE OFFICE WHOLEBUILDING - MD OFFICE A END_B - STORY TOP PSZ-AC UNITARY AC
   **   ~~~   ** Method used to determine the heating supply air flow rate is not specified when heating coil is present.
   ** Warning ** AirLoopHVAC:UnitarySystem = ZONE OFFICE WHOLEBUILDING - MD OFFICE B  - STORY GROUND PSZ-AC UNITARY AC
   **   ~~~   ** Method used to determine the cooling supply air flow rate is not specified when cooling coil is present.
   ** Warning ** AirLoopHVAC:UnitarySystem = ZONE OFFICE WHOLEBUILDING - MD OFFICE B  - STORY GROUND PSZ-AC UNITARY AC
   **   ~~~   ** Method used to determine the heating supply air flow rate is not specified when heating coil is present.
   ** Warning ** AirLoopHVAC:UnitarySystem = ZONE OFFICE WHOLEBUILDING - MD OFFICE B  - STORY TOP PSZ-AC UNITARY AC
   **   ~~~   ** Method used to determine the cooling supply air flow rate is not specified when cooling coil is present.
   ** Warning ** AirLoopHVAC:UnitarySystem = ZONE OFFICE WHOLEBUILDING - MD OFFICE B  - STORY TOP PSZ-AC UNITARY AC
   **   ~~~   ** Method used to determine the heating supply air flow rate is not specified when heating coil is present.
   ** Warning ** AirLoopHVAC:UnitarySystem = ZONE OFFICE WHOLEBUILDING - MD OFFICE B END_A - STORY GROUND PSZ-AC UNITARY AC
   **   ~~~   ** Method used to determine the cooling supply air flow rate is not specified when cooling coil is present.
   ** Warning ** AirLoopHVAC:UnitarySystem = ZONE OFFICE WHOLEBUILDING - MD OFFICE B END_A - STORY GROUND PSZ-AC UNITARY AC
   **   ~~~   ** Method used to determine the heating supply air flow rate is not specified when heating coil is present.
   ** Warning ** AirLoopHVAC:UnitarySystem = ZONE OFFICE WHOLEBUILDING - MD OFFICE B END_A - STORY TOP PSZ-AC UNITARY AC
   **   ~~~   ** Method used to determine the cooling supply air flow rate is not specified when cooling coil is present.
   ** Warning ** AirLoopHVAC:UnitarySystem = ZONE OFFICE WHOLEBUILDING - MD OFFICE B END_A - STORY TOP PSZ-AC UNITARY AC
   **   ~~~   ** Method used to determine the heating supply air flow rate is not specified when heating coil is present.
   ** Warning ** AirLoopHVAC:UnitarySystem = ZONE OFFICE WHOLEBUILDING - MD OFFICE B END_B - STORY GROUND PSZ-AC UNITARY AC
   **   ~~~   ** Method used to determine the cooling supply air flow rate is not specified when cooling coil is present.
   ** Warning ** AirLoopHVAC:UnitarySystem = ZONE OFFICE WHOLEBUILDING - MD OFFICE B END_B - STORY GROUND PSZ-AC UNITARY AC
   **   ~~~   ** Method used to determine the heating supply air flow rate is not specified when heating coil is present.
   ** Warning ** AirLoopHVAC:UnitarySystem = ZONE OFFICE WHOLEBUILDING - MD OFFICE B END_B - STORY TOP PSZ-AC UNITARY AC
   **   ~~~   ** Method used to determine the cooling supply air flow rate is not specified when cooling coil is present.
   ** Warning ** AirLoopHVAC:UnitarySystem = ZONE OFFICE WHOLEBUILDING - MD OFFICE B END_B - STORY TOP PSZ-AC UNITARY AC
   **   ~~~   ** Method used to determine the heating supply air flow rate is not specified when heating coil is present.
   ** Warning ** AirLoopHVAC:UnitarySystem = ZONE OFFICE WHOLEBUILDING - MD OFFICE C  - STORY GROUND PSZ-AC UNITARY AC
   **   ~~~   ** Method used to determine the cooling supply air flow rate is not specified when cooling coil is present.
   ** Warning ** AirLoopHVAC:UnitarySystem = ZONE OFFICE WHOLEBUILDING - MD OFFICE C  - STORY GROUND PSZ-AC UNITARY AC
   **   ~~~   ** Method used to determine the heating supply air flow rate is not specified when heating coil is present.
   ** Warning ** AirLoopHVAC:UnitarySystem = ZONE OFFICE WHOLEBUILDING - MD OFFICE C  - STORY TOP PSZ-AC UNITARY AC
   **   ~~~   ** Method used to determine the cooling supply air flow rate is not specified when cooling coil is present.
   ** Warning ** AirLoopHVAC:UnitarySystem = ZONE OFFICE WHOLEBUILDING - MD OFFICE C  - STORY TOP PSZ-AC UNITARY AC
   **   ~~~   ** Method used to determine the heating supply air flow rate is not specified when heating coil is present.
   ** Warning ** AirLoopHVAC:UnitarySystem = ZONE OFFICE WHOLEBUILDING - MD OFFICE C END_A - STORY GROUND PSZ-AC UNITARY AC
   **   ~~~   ** Method used to determine the cooling supply air flow rate is not specified when cooling coil is present.
   ** Warning ** AirLoopHVAC:UnitarySystem = ZONE OFFICE WHOLEBUILDING - MD OFFICE C END_A - STORY GROUND PSZ-AC UNITARY AC
   **   ~~~   ** Method used to determine the heating supply air flow rate is not specified when heating coil is present.
   ** Warning ** AirLoopHVAC:UnitarySystem = ZONE OFFICE WHOLEBUILDING - MD OFFICE C END_A - STORY TOP PSZ-AC UNITARY AC
   **   ~~~   ** Method used to determine the cooling supply air flow rate is not specified when cooling coil is present.
   ** Warning ** AirLoopHVAC:UnitarySystem = ZONE OFFICE WHOLEBUILDING - MD OFFICE C END_A - STORY TOP PSZ-AC UNITARY AC
   **   ~~~   ** Method used to determine the heating supply air flow rate is not specified when heating coil is present.
   ** Warning ** AirLoopHVAC:UnitarySystem = ZONE OFFICE WHOLEBUILDING - MD OFFICE C END_B - STORY GROUND PSZ-AC UNITARY AC
   **   ~~~   ** Method used to determine the cooling supply air flow rate is not specified when cooling coil is present.
   ** Warning ** AirLoopHVAC:UnitarySystem = ZONE OFFICE WHOLEBUILDING - MD OFFICE C END_B - STORY GROUND PSZ-AC UNITARY AC
   **   ~~~   ** Method used to determine the heating supply air flow rate is not specified when heating coil is present.
   ** Warning ** AirLoopHVAC:UnitarySystem = ZONE OFFICE WHOLEBUILDING - MD OFFICE C END_B - STORY TOP PSZ-AC UNITARY AC
   **   ~~~   ** Method used to determine the cooling supply air flow rate is not specified when cooling coil is present.
   ** Warning ** AirLoopHVAC:UnitarySystem = ZONE OFFICE WHOLEBUILDING - MD OFFICE C END_B - STORY TOP PSZ-AC UNITARY AC
   **   ~~~   ** Method used to determine the heating supply air flow rate is not specified when heating coil is present.
   ************* Beginning Plant Sizing Calculations
   ** Warning ** GetOAControllerInputs: Controller:MechanicalVentilation="CONTROLLER MECHANICAL VENTILATION 1"
   **   ~~~   ** Cannot locate a matching DesignSpecification:ZoneAirDistribution object for Zone="ZONE OFFICE WHOLEBUILDING - MD OFFICE A  - STORY GROUND".
   **   ~~~   ** Using default zone air distribution effectiveness of 1.0 for heating and cooling.
   ** Warning ** GetOAControllerInputs: Controller:MechanicalVentilation="CONTROLLER MECHANICAL VENTILATION 10"
   **   ~~~   ** Cannot locate a matching DesignSpecification:ZoneAirDistribution object for Zone="ZONE OFFICE WHOLEBUILDING - MD OFFICE A  - STORY TOP".
   **   ~~~   ** Using default zone air distribution effectiveness of 1.0 for heating and cooling.
   ** Warning ** GetOAControllerInputs: Controller:MechanicalVentilation="CONTROLLER MECHANICAL VENTILATION 2"
   **   ~~~   ** Cannot locate a matching DesignSpecification:ZoneAirDistribution object for Zone="ZONE OFFICE WHOLEBUILDING - MD OFFICE A END_A - STORY GROUND".
   **   ~~~   ** Using default zone air distribution effectiveness of 1.0 for heating and cooling.
   ** Warning ** GetOAControllerInputs: Controller:MechanicalVentilation="CONTROLLER MECHANICAL VENTILATION 11"
   **   ~~~   ** Cannot locate a matching DesignSpecification:ZoneAirDistribution object for Zone="ZONE OFFICE WHOLEBUILDING - MD OFFICE A END_A - STORY TOP".
   **   ~~~   ** Using default zone air distribution effectiveness of 1.0 for heating and cooling.
   ** Warning ** GetOAControllerInputs: Controller:MechanicalVentilation="CONTROLLER MECHANICAL VENTILATION 3"
   **   ~~~   ** Cannot locate a matching DesignSpecification:ZoneAirDistribution object for Zone="ZONE OFFICE WHOLEBUILDING - MD OFFICE A END_B - STORY GROUND".
   **   ~~~   ** Using default zone air distribution effectiveness of 1.0 for heating and cooling.
   ** Warning ** GetOAControllerInputs: Controller:MechanicalVentilation="CONTROLLER MECHANICAL VENTILATION 12"
   **   ~~~   ** Cannot locate a matching DesignSpecification:ZoneAirDistribution object for Zone="ZONE OFFICE WHOLEBUILDING - MD OFFICE A END_B - STORY TOP".
   **   ~~~   ** Using default zone air distribution effectiveness of 1.0 for heating and cooling.
   ** Warning ** GetOAControllerInputs: Controller:MechanicalVentilation="CONTROLLER MECHANICAL VENTILATION 4"
   **   ~~~   ** Cannot locate a matching DesignSpecification:ZoneAirDistribution object for Zone="ZONE OFFICE WHOLEBUILDING - MD OFFICE B  - STORY GROUND".
   **   ~~~   ** Using default zone air distribution effectiveness of 1.0 for heating and cooling.
   ** Warning ** GetOAControllerInputs: Controller:MechanicalVentilation="CONTROLLER MECHANICAL VENTILATION 13"
   **   ~~~   ** Cannot locate a matching DesignSpecification:ZoneAirDistribution object for Zone="ZONE OFFICE WHOLEBUILDING - MD OFFICE B  - STORY TOP".
   **   ~~~   ** Using default zone air distribution effectiveness of 1.0 for heating and cooling.
   ** Warning ** GetOAControllerInputs: Controller:MechanicalVentilation="CONTROLLER MECHANICAL VENTILATION 5"
   **   ~~~   ** Cannot locate a matching DesignSpecification:ZoneAirDistribution object for Zone="ZONE OFFICE WHOLEBUILDING - MD OFFICE B END_A - STORY GROUND".
   **   ~~~   ** Using default zone air distribution effectiveness of 1.0 for heating and cooling.
   ** Warning ** GetOAControllerInputs: Controller:MechanicalVentilation="CONTROLLER MECHANICAL VENTILATION 14"
   **   ~~~   ** Cannot locate a matching DesignSpecification:ZoneAirDistribution object for Zone="ZONE OFFICE WHOLEBUILDING - MD OFFICE B END_A - STORY TOP".
   **   ~~~   ** Using default zone air distribution effectiveness of 1.0 for heating and cooling.
   ** Warning ** GetOAControllerInputs: Controller:MechanicalVentilation="CONTROLLER MECHANICAL VENTILATION 6"
   **   ~~~   ** Cannot locate a matching DesignSpecification:ZoneAirDistribution object for Zone="ZONE OFFICE WHOLEBUILDING - MD OFFICE B END_B - STORY GROUND".
   **   ~~~   ** Using default zone air distribution effectiveness of 1.0 for heating and cooling.
   ** Warning ** GetOAControllerInputs: Controller:MechanicalVentilation="CONTROLLER MECHANICAL VENTILATION 15"
   **   ~~~   ** Cannot locate a matching DesignSpecification:ZoneAirDistribution object for Zone="ZONE OFFICE WHOLEBUILDING - MD OFFICE B END_B - STORY TOP".
   **   ~~~   ** Using default zone air distribution effectiveness of 1.0 for heating and cooling.
   ** Warning ** GetOAControllerInputs: Controller:MechanicalVentilation="CONTROLLER MECHANICAL VENTILATION 7"
   **   ~~~   ** Cannot locate a matching DesignSpecification:ZoneAirDistribution object for Zone="ZONE OFFICE WHOLEBUILDING - MD OFFICE C  - STORY GROUND".
   **   ~~~   ** Using default zone air distribution effectiveness of 1.0 for heating and cooling.
   ** Warning ** GetOAControllerInputs: Controller:MechanicalVentilation="CONTROLLER MECHANICAL VENTILATION 16"
   **   ~~~   ** Cannot locate a matching DesignSpecification:ZoneAirDistribution object for Zone="ZONE OFFICE WHOLEBUILDING - MD OFFICE C  - STORY TOP".
   **   ~~~   ** Using default zone air distribution effectiveness of 1.0 for heating and cooling.
   ** Warning ** GetOAControllerInputs: Controller:MechanicalVentilation="CONTROLLER MECHANICAL VENTILATION 8"
   **   ~~~   ** Cannot locate a matching DesignSpecification:ZoneAirDistribution object for Zone="ZONE OFFICE WHOLEBUILDING - MD OFFICE C END_A - STORY GROUND".
   **   ~~~   ** Using default zone air distribution effectiveness of 1.0 for heating and cooling.
   ** Warning ** GetOAControllerInputs: Controller:MechanicalVentilation="CONTROLLER MECHANICAL VENTILATION 17"
   **   ~~~   ** Cannot locate a matching DesignSpecification:ZoneAirDistribution object for Zone="ZONE OFFICE WHOLEBUILDING - MD OFFICE C END_A - STORY TOP".
   **   ~~~   ** Using default zone air distribution effectiveness of 1.0 for heating and cooling.
   ** Warning ** GetOAControllerInputs: Controller:MechanicalVentilation="CONTROLLER MECHANICAL VENTILATION 9"
   **   ~~~   ** Cannot locate a matching DesignSpecification:ZoneAirDistribution object for Zone="ZONE OFFICE WHOLEBUILDING - MD OFFICE C END_B - STORY GROUND".
   **   ~~~   ** Using default zone air distribution effectiveness of 1.0 for heating and cooling.
   ** Warning ** GetOAControllerInputs: Controller:MechanicalVentilation="CONTROLLER MECHANICAL VENTILATION 18"
   **   ~~~   ** Cannot locate a matching DesignSpecification:ZoneAirDistribution object for Zone="ZONE OFFICE WHOLEBUILDING - MD OFFICE C END_B - STORY TOP".
   **   ~~~   ** Using default zone air distribution effectiveness of 1.0 for heating and cooling.
   ** Warning ** The Standard Ratings is calculated for Coil:Cooling:DX:SingleSpeed = ZONE OFFICE WHOLEBUILDING - MD OFFICE A  - STORY GROUND PSZ-AC 1SPD DX AC CLG COIL 21KBTU/HR 14.0SEER but not at the AHRI test condition due to curve out of bound.
   **   ~~~   **  Review the Standard Ratings calculations in the Engineering Reference for this coil type. Also, use Output:Diagnostics, DisplayExtraWarnings for further guidance.
   ** Warning ** The Standard Ratings is calculated for Coil:Cooling:DX:SingleSpeed = ZONE OFFICE WHOLEBUILDING - MD OFFICE A  - STORY TOP PSZ-AC 1SPD DX AC CLG COIL 26KBTU/HR 14.0SEER but not at the AHRI test condition due to curve out of bound.
   **   ~~~   **  Review the Standard Ratings calculations in the Engineering Reference for this coil type. Also, use Output:Diagnostics, DisplayExtraWarnings for further guidance.
   ** Warning ** The Standard Ratings is calculated for Coil:Cooling:DX:SingleSpeed = ZONE OFFICE WHOLEBUILDING - MD OFFICE A END_A - STORY GROUND PSZ-AC 1SPD DX AC CLG COIL 10KBTU/HR 14.0SEER but not at the AHRI test condition due to curve out of bound.
   **   ~~~   **  Review the Standard Ratings calculations in the Engineering Reference for this coil type. Also, use Output:Diagnostics, DisplayExtraWarnings for further guidance.
   ** Warning ** The Standard Ratings is calculated for Coil:Cooling:DX:SingleSpeed = ZONE OFFICE WHOLEBUILDING - MD OFFICE A END_A - STORY TOP PSZ-AC 1SPD DX AC CLG COIL 12KBTU/HR 14.0SEER but not at the AHRI test condition due to curve out of bound.
   **   ~~~   **  Review the Standard Ratings calculations in the Engineering Reference for this coil type. Also, use Output:Diagnostics, DisplayExtraWarnings for further guidance.
   ** Warning ** The Standard Ratings is calculated for Coil:Cooling:DX:SingleSpeed = ZONE OFFICE WHOLEBUILDING - MD OFFICE A END_B - STORY GROUND PSZ-AC 1SPD DX AC CLG COIL 9KBTU/HR 14.0SEER but not at the AHRI test condition due to curve out of bound.
   **   ~~~   **  Review the Standard Ratings calculations in the Engineering Reference for this coil type. Also, use Output:Diagnostics, DisplayExtraWarnings for further guidance.
   ** Warning ** For object = Coil:Cooling:DX:SingleSpeed, name = "ZONE OFFICE WHOLEBUILDING - MD OFFICE A END_B - STORY GROUND PSZ-AC 1SPD DX AC CLG COIL 9KBTU/HR 14.0SEER"
   **   ~~~   ** Calculated outlet air relative humidity greater than 1. The combination of
   **   ~~~   ** rated air volume flow rate, total cooling capacity and sensible heat ratio yields coil exiting
   **   ~~~   ** air conditions above the saturation curve. Possible fixes are to reduce the rated total cooling
   **   ~~~   ** capacity, increase the rated air volume flow rate, or reduce the rated sensible heat ratio for this coil.
   **   ~~~   ** If autosizing, it is recommended that all three of these values be autosized.
   **   ~~~   ** ...Inputs used for calculating cooling coil bypass factor.
   **   ~~~   ** ...Inlet Air Temperature     = 26.67 C
   **   ~~~   ** ...Outlet Air Temperature    = 13.90 C
   **   ~~~   ** ...Inlet Air Humidity Ratio  = 1.118470E-002 kgWater/kgDryAir
   **   ~~~   ** ...Outlet Air Humidity Ratio = 9.906567E-003 kgWater/kgDryAir
   **   ~~~   ** ...Total Cooling Capacity used in calculation = 5746.76 W
   **   ~~~   ** ...Air Mass Flow Rate used in calculation     = 0.352041 kg/s
   **   ~~~   ** ...Air Volume Flow Rate used in calculation   = 0.304337 m3/s
   **   ~~~   **  During Warmup, Environment=KODIAK ANN CLG .4% CONDNS DB=>MWB, at Simulation time=08/21 00:00 - 01:00
   **   ~~~   ** CalcCBF: SHR adjusted to achieve valid outlet air properties and the simulation continues.
   **   ~~~   ** CalcCBF: initial SHR = 0.80030
   **   ~~~   ** CalcCBF: adjusted SHR = 0.79933
   ** Warning ** The Standard Ratings is calculated for Coil:Cooling:DX:SingleSpeed = ZONE OFFICE WHOLEBUILDING - MD OFFICE A END_B - STORY TOP PSZ-AC 1SPD DX AC CLG COIL 11KBTU/HR 14.0SEER but not at the AHRI test condition due to curve out of bound.
   **   ~~~   **  Review the Standard Ratings calculations in the Engineering Reference for this coil type. Also, use Output:Diagnostics, DisplayExtraWarnings for further guidance.
   ** Warning ** The Standard Ratings is calculated for Coil:Cooling:DX:SingleSpeed = ZONE OFFICE WHOLEBUILDING - MD OFFICE B  - STORY GROUND PSZ-AC 1SPD DX AC CLG COIL 16KBTU/HR 14.0SEER but not at the AHRI test condition due to curve out of bound.
   **   ~~~   **  Review the Standard Ratings calculations in the Engineering Reference for this coil type. Also, use Output:Diagnostics, DisplayExtraWarnings for further guidance.
   ** Warning ** The Standard Ratings is calculated for Coil:Cooling:DX:SingleSpeed = ZONE OFFICE WHOLEBUILDING - MD OFFICE B  - STORY TOP PSZ-AC 1SPD DX AC CLG COIL 16KBTU/HR 14.0SEER but not at the AHRI test condition due to curve out of bound.
   **   ~~~   **  Review the Standard Ratings calculations in the Engineering Reference for this coil type. Also, use Output:Diagnostics, DisplayExtraWarnings for further guidance.
   ** Warning ** The Standard Ratings is calculated for Coil:Cooling:DX:SingleSpeed = ZONE OFFICE WHOLEBUILDING - MD OFFICE B END_A - STORY GROUND PSZ-AC 1SPD DX AC CLG COIL 11KBTU/HR 14.0SEER but not at the AHRI test condition due to curve out of bound.
   **   ~~~   **  Review the Standard Ratings calculations in the Engineering Reference for this coil type. Also, use Output:Diagnostics, DisplayExtraWarnings for further guidance.
   ** Warning ** The Standard Ratings is calculated for Coil:Cooling:DX:SingleSpeed = ZONE OFFICE WHOLEBUILDING - MD OFFICE B END_A - STORY TOP PSZ-AC 1SPD DX AC CLG COIL 14KBTU/HR 14.0SEER but not at the AHRI test condition due to curve out of bound.
   **   ~~~   **  Review the Standard Ratings calculations in the Engineering Reference for this coil type. Also, use Output:Diagnostics, DisplayExtraWarnings for further guidance.
   ** Warning ** The Standard Ratings is calculated for Coil:Cooling:DX:SingleSpeed = ZONE OFFICE WHOLEBUILDING - MD OFFICE B END_B - STORY GROUND PSZ-AC 1SPD DX AC CLG COIL 11KBTU/HR 14.0SEER but not at the AHRI test condition due to curve out of bound.
   **   ~~~   **  Review the Standard Ratings calculations in the Engineering Reference for this coil type. Also, use Output:Diagnostics, DisplayExtraWarnings for further guidance.
   ** Warning ** The Standard Ratings is calculated for Coil:Cooling:DX:SingleSpeed = ZONE OFFICE WHOLEBUILDING - MD OFFICE B END_B - STORY TOP PSZ-AC 1SPD DX AC CLG COIL 14KBTU/HR 14.0SEER but not at the AHRI test condition due to curve out of bound.
   **   ~~~   **  Review the Standard Ratings calculations in the Engineering Reference for this coil type. Also, use Output:Diagnostics, DisplayExtraWarnings for further guidance.
   ** Warning ** The Standard Ratings is calculated for Coil:Cooling:DX:SingleSpeed = ZONE OFFICE WHOLEBUILDING - MD OFFICE C  - STORY GROUND PSZ-AC 1SPD DX AC CLG COIL 12KBTU/HR 14.0SEER but not at the AHRI test condition due to curve out of bound.
   **   ~~~   **  Review the Standard Ratings calculations in the Engineering Reference for this coil type. Also, use Output:Diagnostics, DisplayExtraWarnings for further guidance.
   ** Warning ** The Standard Ratings is calculated for Coil:Cooling:DX:SingleSpeed = ZONE OFFICE WHOLEBUILDING - MD OFFICE C  - STORY TOP PSZ-AC 1SPD DX AC CLG COIL 12KBTU/HR 14.0SEER but not at the AHRI test condition due to curve out of bound.
   **   ~~~   **  Review the Standard Ratings calculations in the Engineering Reference for this coil type. Also, use Output:Diagnostics, DisplayExtraWarnings for further guidance.
   ** Warning ** The Standard Ratings is calculated for Coil:Cooling:DX:SingleSpeed = ZONE OFFICE WHOLEBUILDING - MD OFFICE C END_A - STORY GROUND PSZ-AC 1SPD DX AC CLG COIL 8KBTU/HR 14.0SEER but not at the AHRI test condition due to curve out of bound.
   **   ~~~   **  Review the Standard Ratings calculations in the Engineering Reference for this coil type. Also, use Output:Diagnostics, DisplayExtraWarnings for further guidance.
   ** Warning ** The Standard Ratings is calculated for Coil:Cooling:DX:SingleSpeed = ZONE OFFICE WHOLEBUILDING - MD OFFICE C END_A - STORY TOP PSZ-AC 1SPD DX AC CLG COIL 9KBTU/HR 14.0SEER but not at the AHRI test condition due to curve out of bound.
   **   ~~~   **  Review the Standard Ratings calculations in the Engineering Reference for this coil type. Also, use Output:Diagnostics, DisplayExtraWarnings for further guidance.
   ** Warning ** The Standard Ratings is calculated for Coil:Cooling:DX:SingleSpeed = ZONE OFFICE WHOLEBUILDING - MD OFFICE C END_B - STORY GROUND PSZ-AC 1SPD DX AC CLG COIL 7KBTU/HR 14.0SEER but not at the AHRI test condition due to curve out of bound.
   **   ~~~   **  Review the Standard Ratings calculations in the Engineering Reference for this coil type. Also, use Output:Diagnostics, DisplayExtraWarnings for further guidance.
   ** Warning ** The Standard Ratings is calculated for Coil:Cooling:DX:SingleSpeed = ZONE OFFICE WHOLEBUILDING - MD OFFICE C END_B - STORY TOP PSZ-AC 1SPD DX AC CLG COIL 9KBTU/HR 14.0SEER but not at the AHRI test condition due to curve out of bound.
   **   ~~~   **  Review the Standard Ratings calculations in the Engineering Reference for this coil type. Also, use Output:Diagnostics, DisplayExtraWarnings for further guidance.
   ** Warning ** SizePlantLoop: Calculated Plant Sizing Design Volume Flow Rate=[0.00] is too small. Set to 0.0
   **   ~~~   ** ..occurs for PlantLoop=MAIN SERVICE WATER LOOP
   ** Warning ** SizePump: Calculated Pump Nominal Volume Flow Rate=[0.00] is too small. Set to 0.0
   **   ~~~   ** ..occurs for Pump=MAIN SERVICE WATER LOOP WATER MAINS PRESSURE DRIVEN
   ** Warning ** Check input. Pump nominal power or motor efficiency is set to 0, for pump=MAIN SERVICE WATER LOOP WATER MAINS PRESSURE DRIVEN
   ** Warning ** Check input. Pump nominal flow rate is set or calculated = 0, for pump=MAIN SERVICE WATER LOOP WATER MAINS PRESSURE DRIVEN
   ** Warning ** Output:Meter: invalid Key Name="DISTRICTCOOLING:FACILITY" - not found.
   ** Warning ** Output:Meter:MeterFileOnly requested for "Electricity:Facility" (TimeStep), already on "Output:Meter". Will report to both eplusout.eso and eplusout.mtr
   ************* Testing Individual Branch Integrity
   ************* All Branches passed integrity testing
   ************* Testing Individual Supply Air Path Integrity
   ************* All Supply Air Paths passed integrity testing
   ************* Testing Individual Return Air Path Integrity
   ************* All Return Air Paths passed integrity testing
   ************* No node connection errors were found.
   ************* Beginning Simulation
   ** Warning ** In Output:Table:Monthly 'BUILDING ENERGY PERFORMANCE - ELECTRICITY' invalid Variable or Meter Name 'EXTERIOREQUIPMENT:ELECTRICITY'
   ** Warning ** In Output:Table:Monthly 'BUILDING ENERGY PERFORMANCE - ELECTRICITY' invalid Variable or Meter Name 'HEATREJECTION:ELECTRICITY'
   ** Warning ** In Output:Table:Monthly 'BUILDING ENERGY PERFORMANCE - ELECTRICITY' invalid Variable or Meter Name 'HUMIDIFIER:ELECTRICITY'
   ** Warning ** In Output:Table:Monthly 'BUILDING ENERGY PERFORMANCE - ELECTRICITY' invalid Variable or Meter Name 'HEATRECOVERY:ELECTRICITY'
   ** Warning ** In Output:Table:Monthly 'BUILDING ENERGY PERFORMANCE - ELECTRICITY' invalid Variable or Meter Name 'COGENERATION:ELECTRICITY'
   ** Warning ** In Output:Table:Monthly 'BUILDING ENERGY PERFORMANCE - ELECTRICITY' invalid Variable or Meter Name 'REFRIGERATION:ELECTRICITY'
   ** Warning ** In Output:Table:Monthly 'BUILDING ENERGY PERFORMANCE - NATURAL GAS' invalid Variable or Meter Name 'INTERIOREQUIPMENT:NATURALGAS'
   ** Warning ** In Output:Table:Monthly 'BUILDING ENERGY PERFORMANCE - NATURAL GAS' invalid Variable or Meter Name 'EXTERIOREQUIPMENT:NATURALGAS'
   ** Warning ** In Output:Table:Monthly 'BUILDING ENERGY PERFORMANCE - NATURAL GAS' invalid Variable or Meter Name 'HEATING:NATURALGAS'
   ** Warning ** In Output:Table:Monthly 'BUILDING ENERGY PERFORMANCE - NATURAL GAS' invalid Variable or Meter Name 'COOLING:NATURALGAS'
   ** Warning ** In Output:Table:Monthly 'BUILDING ENERGY PERFORMANCE - NATURAL GAS' invalid Variable or Meter Name 'COGENERATION:NATURALGAS'
   ** Warning ** In Output:Table:Monthly 'BUILDING ENERGY PERFORMANCE - DISTRICT HEATING' invalid Variable or Meter Name 'INTERIORLIGHTS:DISTRICTHEATING'
   ** Warning ** In Output:Table:Monthly 'BUILDING ENERGY PERFORMANCE - DISTRICT HEATING' invalid Variable or Meter Name 'EXTERIORLIGHTS:DISTRICTHEATING'
   ** Warning ** In Output:Table:Monthly 'BUILDING ENERGY PERFORMANCE - DISTRICT HEATING' invalid Variable or Meter Name 'INTERIOREQUIPMENT:DISTRICTHEATING'
   ** Warning ** In Output:Table:Monthly 'BUILDING ENERGY PERFORMANCE - DISTRICT HEATING' invalid Variable or Meter Name 'EXTERIOREQUIPMENT:DISTRICTHEATING'
   ** Warning ** In Output:Table:Monthly 'BUILDING ENERGY PERFORMANCE - DISTRICT HEATING' invalid Variable or Meter Name 'FANS:DISTRICTHEATING'
   ** Warning ** In Output:Table:Monthly 'BUILDING ENERGY PERFORMANCE - DISTRICT HEATING' invalid Variable or Meter Name 'PUMPS:DISTRICTHEATING'
   ** Warning ** In Output:Table:Monthly 'BUILDING ENERGY PERFORMANCE - DISTRICT HEATING' invalid Variable or Meter Name 'COOLING:DISTRICTHEATING'
   ** Warning ** In Output:Table:Monthly 'BUILDING ENERGY PERFORMANCE - DISTRICT HEATING' invalid Variable or Meter Name 'HEATREJECTION:DISTRICTHEATING'
   ** Warning ** In Output:Table:Monthly 'BUILDING ENERGY PERFORMANCE - DISTRICT HEATING' invalid Variable or Meter Name 'HUMIDIFIER:DISTRICTHEATING'
   ** Warning ** In Output:Table:Monthly 'BUILDING ENERGY PERFORMANCE - DISTRICT HEATING' invalid Variable or Meter Name 'HEATRECOVERY:DISTRICTHEATING'
   ** Warning ** In Output:Table:Monthly 'BUILDING ENERGY PERFORMANCE - DISTRICT HEATING' invalid Variable or Meter Name 'WATERSYSTEMS:DISTRICTHEATING'
   ** Warning ** In Output:Table:Monthly 'BUILDING ENERGY PERFORMANCE - DISTRICT HEATING' invalid Variable or Meter Name 'COGENERATION:DISTRICTHEATING'
   ** Warning ** In Output:Table:Monthly 'BUILDING ENERGY PERFORMANCE - DISTRICT COOLING' invalid Variable or Meter Name 'INTERIORLIGHTS:DISTRICTCOOLING'
   ** Warning ** In Output:Table:Monthly 'BUILDING ENERGY PERFORMANCE - DISTRICT COOLING' invalid Variable or Meter Name 'EXTERIORLIGHTS:DISTRICTCOOLING'
   ** Warning ** In Output:Table:Monthly 'BUILDING ENERGY PERFORMANCE - DISTRICT COOLING' invalid Variable or Meter Name 'INTERIOREQUIPMENT:DISTRICTCOOLING'
   ** Warning ** In Output:Table:Monthly 'BUILDING ENERGY PERFORMANCE - DISTRICT COOLING' invalid Variable or Meter Name 'EXTERIOREQUIPMENT:DISTRICTCOOLING'
   ** Warning ** In Output:Table:Monthly 'BUILDING ENERGY PERFORMANCE - DISTRICT COOLING' invalid Variable or Meter Name 'FANS:DISTRICTCOOLING'
   ** Warning ** In Output:Table:Monthly 'BUILDING ENERGY PERFORMANCE - DISTRICT COOLING' invalid Variable or Meter Name 'PUMPS:DISTRICTCOOLING'
   ** Warning ** In Output:Table:Monthly 'BUILDING ENERGY PERFORMANCE - DISTRICT COOLING' invalid Variable or Meter Name 'HEATING:DISTRICTCOOLING'
   ** Warning ** In Output:Table:Monthly 'BUILDING ENERGY PERFORMANCE - DISTRICT COOLING' invalid Variable or Meter Name 'COOLING:DISTRICTCOOLING'
   ** Warning ** In Output:Table:Monthly 'BUILDING ENERGY PERFORMANCE - DISTRICT COOLING' invalid Variable or Meter Name 'HEATREJECTION:DISTRICTCOOLING'
   ** Warning ** In Output:Table:Monthly 'BUILDING ENERGY PERFORMANCE - DISTRICT COOLING' invalid Variable or Meter Name 'HUMIDIFIER:DISTRICTCOOLING'
   ** Warning ** In Output:Table:Monthly 'BUILDING ENERGY PERFORMANCE - DISTRICT COOLING' invalid Variable or Meter Name 'HEATRECOVERY:DISTRICTCOOLING'
   ** Warning ** In Output:Table:Monthly 'BUILDING ENERGY PERFORMANCE - DISTRICT COOLING' invalid Variable or Meter Name 'WATERSYSTEMS:DISTRICTCOOLING'
   ** Warning ** In Output:Table:Monthly 'BUILDING ENERGY PERFORMANCE - DISTRICT COOLING' invalid Variable or Meter Name 'COGENERATION:DISTRICTCOOLING'
   ** Warning ** In Output:Table:Monthly 'BUILDING ENERGY PERFORMANCE - ELECTRICITY PEAK DEMAND' invalid Variable or Meter Name 'EXTERIOREQUIPMENT:ELECTRICITY'
   ** Warning ** In Output:Table:Monthly 'BUILDING ENERGY PERFORMANCE - ELECTRICITY PEAK DEMAND' invalid Variable or Meter Name 'HEATREJECTION:ELECTRICITY'
   ** Warning ** In Output:Table:Monthly 'BUILDING ENERGY PERFORMANCE - ELECTRICITY PEAK DEMAND' invalid Variable or Meter Name 'HUMIDIFIER:ELECTRICITY'
   ** Warning ** In Output:Table:Monthly 'BUILDING ENERGY PERFORMANCE - ELECTRICITY PEAK DEMAND' invalid Variable or Meter Name 'HEATRECOVERY:ELECTRICITY'
   ** Warning ** In Output:Table:Monthly 'BUILDING ENERGY PERFORMANCE - ELECTRICITY PEAK DEMAND' invalid Variable or Meter Name 'COGENERATION:ELECTRICITY'
   ** Warning ** In Output:Table:Monthly 'BUILDING ENERGY PERFORMANCE - NATURAL GAS PEAK DEMAND' invalid Variable or Meter Name 'INTERIOREQUIPMENT:NATURALGAS'
   ** Warning ** In Output:Table:Monthly 'BUILDING ENERGY PERFORMANCE - NATURAL GAS PEAK DEMAND' invalid Variable or Meter Name 'EXTERIOREQUIPMENT:NATURALGAS'
   ** Warning ** In Output:Table:Monthly 'BUILDING ENERGY PERFORMANCE - NATURAL GAS PEAK DEMAND' invalid Variable or Meter Name 'HEATING:NATURALGAS'
   ** Warning ** In Output:Table:Monthly 'BUILDING ENERGY PERFORMANCE - NATURAL GAS PEAK DEMAND' invalid Variable or Meter Name 'COOLING:NATURALGAS'
   ** Warning ** In Output:Table:Monthly 'BUILDING ENERGY PERFORMANCE - NATURAL GAS PEAK DEMAND' invalid Variable or Meter Name 'COGENERATION:NATURALGAS'
   ** Warning ** In Output:Table:Monthly 'BUILDING ENERGY PERFORMANCE - DISTRICT HEATING PEAK DEMAND' invalid Variable or Meter Name 'INTERIORLIGHTS:DISTRICTHEATING'
   ** Warning ** In Output:Table:Monthly 'BUILDING ENERGY PERFORMANCE - DISTRICT HEATING PEAK DEMAND' invalid Variable or Meter Name 'EXTERIORLIGHTS:DISTRICTHEATING'
   ** Warning ** In Output:Table:Monthly 'BUILDING ENERGY PERFORMANCE - DISTRICT HEATING PEAK DEMAND' invalid Variable or Meter Name 'INTERIOREQUIPMENT:DISTRICTHEATING'
   ** Warning ** In Output:Table:Monthly 'BUILDING ENERGY PERFORMANCE - DISTRICT HEATING PEAK DEMAND' invalid Variable or Meter Name 'EXTERIOREQUIPMENT:DISTRICTHEATING'
   ** Warning ** In Output:Table:Monthly 'BUILDING ENERGY PERFORMANCE - DISTRICT HEATING PEAK DEMAND' invalid Variable or Meter Name 'FANS:DISTRICTHEATING'
   ** Warning ** In Output:Table:Monthly 'BUILDING ENERGY PERFORMANCE - DISTRICT HEATING PEAK DEMAND' invalid Variable or Meter Name 'PUMPS:DISTRICTHEATING'
   ** Warning ** In Output:Table:Monthly 'BUILDING ENERGY PERFORMANCE - DISTRICT HEATING PEAK DEMAND' invalid Variable or Meter Name 'COOLING:DISTRICTHEATING'
   ** Warning ** In Output:Table:Monthly 'BUILDING ENERGY PERFORMANCE - DISTRICT HEATING PEAK DEMAND' invalid Variable or Meter Name 'HEATREJECTION:DISTRICTHEATING'
   ** Warning ** In Output:Table:Monthly 'BUILDING ENERGY PERFORMANCE - DISTRICT HEATING PEAK DEMAND' invalid Variable or Meter Name 'HUMIDIFIER:DISTRICTHEATING'
   ** Warning ** In Output:Table:Monthly 'BUILDING ENERGY PERFORMANCE - DISTRICT HEATING PEAK DEMAND' invalid Variable or Meter Name 'HEATRECOVERY:DISTRICTHEATING'
   ** Warning ** In Output:Table:Monthly 'BUILDING ENERGY PERFORMANCE - DISTRICT HEATING PEAK DEMAND' invalid Variable or Meter Name 'WATERSYSTEMS:DISTRICTHEATING'
   ** Warning ** In Output:Table:Monthly 'BUILDING ENERGY PERFORMANCE - DISTRICT HEATING PEAK DEMAND' invalid Variable or Meter Name 'COGENERATION:DISTRICTHEATING'
   ** Warning ** In Output:Table:Monthly 'BUILDING ENERGY PERFORMANCE - DISTRICT COOLING PEAK DEMAND' invalid Variable or Meter Name 'DISTRICTCOOLING:FACILITY'
   ** Warning ** In Output:Table:Monthly 'BUILDING ENERGY PERFORMANCE - DISTRICT COOLING PEAK DEMAND' invalid Variable or Meter Name 'INTERIORLIGHTS:DISTRICTCOOLING'
   ** Warning ** In Output:Table:Monthly 'BUILDING ENERGY PERFORMANCE - DISTRICT COOLING PEAK DEMAND' invalid Variable or Meter Name 'EXTERIORLIGHTS:DISTRICTCOOLING'
   ** Warning ** In Output:Table:Monthly 'BUILDING ENERGY PERFORMANCE - DISTRICT COOLING PEAK DEMAND' invalid Variable or Meter Name 'INTERIOREQUIPMENT:DISTRICTCOOLING'
   ** Warning ** In Output:Table:Monthly 'BUILDING ENERGY PERFORMANCE - DISTRICT COOLING PEAK DEMAND' invalid Variable or Meter Name 'EXTERIOREQUIPMENT:DISTRICTCOOLING'
   ** Warning ** In Output:Table:Monthly 'BUILDING ENERGY PERFORMANCE - DISTRICT COOLING PEAK DEMAND' invalid Variable or Meter Name 'FANS:DISTRICTCOOLING'
   ** Warning ** In Output:Table:Monthly 'BUILDING ENERGY PERFORMANCE - DISTRICT COOLING PEAK DEMAND' invalid Variable or Meter Name 'PUMPS:DISTRICTCOOLING'
   ** Warning ** In Output:Table:Monthly 'BUILDING ENERGY PERFORMANCE - DISTRICT COOLING PEAK DEMAND' invalid Variable or Meter Name 'HEATING:DISTRICTCOOLING'
   ** Warning ** In Output:Table:Monthly 'BUILDING ENERGY PERFORMANCE - DISTRICT COOLING PEAK DEMAND' invalid Variable or Meter Name 'COOLING:DISTRICTCOOLING'
   ** Warning ** In Output:Table:Monthly 'BUILDING ENERGY PERFORMANCE - DISTRICT COOLING PEAK DEMAND' invalid Variable or Meter Name 'HEATREJECTION:DISTRICTCOOLING'
   ** Warning ** In Output:Table:Monthly 'BUILDING ENERGY PERFORMANCE - DISTRICT COOLING PEAK DEMAND' invalid Variable or Meter Name 'HUMIDIFIER:DISTRICTCOOLING'
   ** Warning ** In Output:Table:Monthly 'BUILDING ENERGY PERFORMANCE - DISTRICT COOLING PEAK DEMAND' invalid Variable or Meter Name 'HEATRECOVERY:DISTRICTCOOLING'
   ** Warning ** In Output:Table:Monthly 'BUILDING ENERGY PERFORMANCE - DISTRICT COOLING PEAK DEMAND' invalid Variable or Meter Name 'WATERSYSTEMS:DISTRICTCOOLING'
   ** Warning ** In Output:Table:Monthly 'BUILDING ENERGY PERFORMANCE - DISTRICT COOLING PEAK DEMAND' invalid Variable or Meter Name 'COGENERATION:DISTRICTCOOLING'
   ** Warning ** Processing Monthly Tabular Reports: Variable names not valid for this simulation
   **   ~~~   ** ...use Output:Diagnostics,DisplayExtraWarnings; to show more details on individual variables.
   ** Warning ** CalcEquipmentFlowRates: "OFFICE WHOLEBUILDING - MD OFFICE - 90.1-2016 SERVICE WATER USE 0.13GPM AT 140F" - Target water temperature is greater than the hot water temperature by (40.38 C)
   **   ~~~   **  Environment=RUN PERIOD 1, at Simulation time=01/01 04:00 - 05:00
   **   ~~~   ** ...target water temperature     = 60.00 C
   **   ~~~   ** ...hot water temperature        = 19.62 C
   **   ~~~   ** ...Target water temperature should be less than or equal to the hot water temperature. Verify temperature setpoints and schedules.
   ** Warning ** CalcOAController: Minimum OA fraction > Mechanical Ventilation Controller request for Controller:OutdoorAir=ZONE OFFICE WHOLEBUILDING - MD OFFICE A  - STORY GROUND PSZ-AC OA SYSTEM CONTROLLER, Min OA fraction is used.
   **   ~~~   ** This may be overriding desired ventilation controls. Check inputs for Minimum Outdoor Air Flow Rate, Minimum Outdoor Air Schedule Name and Controller:MechanicalVentilation
   **   ~~~   ** Minimum OA fraction = 5.5634E-002, Mech Vent OA fraction = 6.2084E-003
   **   ~~~   **  Environment=RUN PERIOD 1, at Simulation time=01/02 21:00 - 22:00
   ** Warning ** CalcOAController: Minimum OA fraction > Mechanical Ventilation Controller request for Controller:OutdoorAir=ZONE OFFICE WHOLEBUILDING - MD OFFICE A  - STORY TOP PSZ-AC OA SYSTEM CONTROLLER, Min OA fraction is used.
   **   ~~~   ** This may be overriding desired ventilation controls. Check inputs for Minimum Outdoor Air Flow Rate, Minimum Outdoor Air Schedule Name and Controller:MechanicalVentilation
   **   ~~~   ** Minimum OA fraction = 4.8382E-002, Mech Vent OA fraction = 6.2443E-003
   **   ~~~   **  Environment=RUN PERIOD 1, at Simulation time=01/02 21:00 - 22:00
   ** Warning ** CalcOAController: Minimum OA fraction > Mechanical Ventilation Controller request for Controller:OutdoorAir=ZONE OFFICE WHOLEBUILDING - MD OFFICE A END_A - STORY GROUND PSZ-AC OA SYSTEM CONTROLLER, Min OA fraction is used.
   **   ~~~   ** This may be overriding desired ventilation controls. Check inputs for Minimum Outdoor Air Flow Rate, Minimum Outdoor Air Schedule Name and Controller:MechanicalVentilation
   **   ~~~   ** Minimum OA fraction = 2.9166E-002, Mech Vent OA fraction = 4.2898E-003
   **   ~~~   **  Environment=RUN PERIOD 1, at Simulation time=01/02 21:00 - 22:00
   ** Warning ** CalcOAController: Minimum OA fraction > Mechanical Ventilation Controller request for Controller:OutdoorAir=ZONE OFFICE WHOLEBUILDING - MD OFFICE A END_A - STORY TOP PSZ-AC OA SYSTEM CONTROLLER, Min OA fraction is used.
   **   ~~~   ** This may be overriding desired ventilation controls. Check inputs for Minimum Outdoor Air Flow Rate, Minimum Outdoor Air Schedule Name and Controller:MechanicalVentilation
   **   ~~~   ** Minimum OA fraction = 2.6659E-002, Mech Vent OA fraction = 4.3366E-003
   **   ~~~   **  Environment=RUN PERIOD 1, at Simulation time=01/02 21:00 - 22:00
   ** Warning ** CalcOAController: Minimum OA fraction > Mechanical Ventilation Controller request for Controller:OutdoorAir=ZONE OFFICE WHOLEBUILDING - MD OFFICE A END_B - STORY GROUND PSZ-AC OA SYSTEM CONTROLLER, Min OA fraction is used.
   **   ~~~   ** This may be overriding desired ventilation controls. Check inputs for Minimum Outdoor Air Flow Rate, Minimum Outdoor Air Schedule Name and Controller:MechanicalVentilation
   **   ~~~   ** Minimum OA fraction = 2.9658E-002, Mech Vent OA fraction = 4.2201E-003
   **   ~~~   **  Environment=RUN PERIOD 1, at Simulation time=01/02 21:00 - 22:00
   ** Warning ** CalcOAController: Minimum OA fraction > Mechanical Ventilation Controller request for Controller:OutdoorAir=ZONE OFFICE WHOLEBUILDING - MD OFFICE A END_B - STORY TOP PSZ-AC OA SYSTEM CONTROLLER, Min OA fraction is used.
   **   ~~~   ** This may be overriding desired ventilation controls. Check inputs for Minimum Outdoor Air Flow Rate, Minimum Outdoor Air Schedule Name and Controller:MechanicalVentilation
   **   ~~~   ** Minimum OA fraction = 2.6704E-002, Mech Vent OA fraction = 4.1975E-003
   **   ~~~   **  Environment=RUN PERIOD 1, at Simulation time=01/02 21:00 - 22:00
   ** Warning ** CalcOAController: Minimum OA fraction > Mechanical Ventilation Controller request for Controller:OutdoorAir=ZONE OFFICE WHOLEBUILDING - MD OFFICE B END_A - STORY GROUND PSZ-AC OA SYSTEM CONTROLLER, Min OA fraction is used.
   **   ~~~   ** This may be overriding desired ventilation controls. Check inputs for Minimum Outdoor Air Flow Rate, Minimum Outdoor Air Schedule Name and Controller:MechanicalVentilation
   **   ~~~   ** Minimum OA fraction = 4.0879E-002, Mech Vent OA fraction = 4.5928E-003
   **   ~~~   **  Environment=RUN PERIOD 1, at Simulation time=01/02 21:00 - 22:00
   ** Warning ** CalcOAController: Minimum OA fraction > Mechanical Ventilation Controller request for Controller:OutdoorAir=ZONE OFFICE WHOLEBUILDING - MD OFFICE B END_A - STORY TOP PSZ-AC OA SYSTEM CONTROLLER, Min OA fraction is used.
   **   ~~~   ** This may be overriding desired ventilation controls. Check inputs for Minimum Outdoor Air Flow Rate, Minimum Outdoor Air Schedule Name and Controller:MechanicalVentilation
   **   ~~~   ** Minimum OA fraction = 3.6034E-002, Mech Vent OA fraction = 4.4143E-003
   **   ~~~   **  Environment=RUN PERIOD 1, at Simulation time=01/02 21:00 - 22:00
   ** Warning ** CalcOAController: Minimum OA fraction > Mechanical Ventilation Controller request for Controller:OutdoorAir=ZONE OFFICE WHOLEBUILDING - MD OFFICE B END_B - STORY GROUND PSZ-AC OA SYSTEM CONTROLLER, Min OA fraction is used.
   **   ~~~   ** This may be overriding desired ventilation controls. Check inputs for Minimum Outdoor Air Flow Rate, Minimum Outdoor Air Schedule Name and Controller:MechanicalVentilation
   **   ~~~   ** Minimum OA fraction = 3.9972E-002, Mech Vent OA fraction = 4.0154E-003
   **   ~~~   **  Environment=RUN PERIOD 1, at Simulation time=01/02 21:00 - 22:00
   ** Warning ** CalcOAController: Minimum OA fraction > Mechanical Ventilation Controller request for Controller:OutdoorAir=ZONE OFFICE WHOLEBUILDING - MD OFFICE B END_B - STORY TOP PSZ-AC OA SYSTEM CONTROLLER, Min OA fraction is used.
   **   ~~~   ** This may be overriding desired ventilation controls. Check inputs for Minimum Outdoor Air Flow Rate, Minimum Outdoor Air Schedule Name and Controller:MechanicalVentilation
   **   ~~~   ** Minimum OA fraction = 3.4632E-002, Mech Vent OA fraction = 3.9011E-003
   **   ~~~   **  Environment=RUN PERIOD 1, at Simulation time=01/02 21:00 - 22:00
   ** Warning ** CalcOAController: Minimum OA fraction > Mechanical Ventilation Controller request for Controller:OutdoorAir=ZONE OFFICE WHOLEBUILDING - MD OFFICE C  - STORY GROUND PSZ-AC OA SYSTEM CONTROLLER, Min OA fraction is used.
   **   ~~~   ** This may be overriding desired ventilation controls. Check inputs for Minimum Outdoor Air Flow Rate, Minimum Outdoor Air Schedule Name and Controller:MechanicalVentilation
   **   ~~~   ** Minimum OA fraction = 9.1201E-002, Mech Vent OA fraction = 2.1604E-002
   **   ~~~   **  Environment=RUN PERIOD 1, at Simulation time=01/02 21:00 - 22:00
   ** Warning ** CalcOAController: Minimum OA fraction > Mechanical Ventilation Controller request for Controller:OutdoorAir=ZONE OFFICE WHOLEBUILDING - MD OFFICE C  - STORY TOP PSZ-AC OA SYSTEM CONTROLLER, Min OA fraction is used.
   **   ~~~   ** This may be overriding desired ventilation controls. Check inputs for Minimum Outdoor Air Flow Rate, Minimum Outdoor Air Schedule Name and Controller:MechanicalVentilation
   **   ~~~   ** Minimum OA fraction = 8.0780E-002, Mech Vent OA fraction = 1.9674E-002
   **   ~~~   **  Environment=RUN PERIOD 1, at Simulation time=01/02 21:00 - 22:00
   ** Warning ** CalcOAController: Minimum OA fraction > Mechanical Ventilation Controller request for Controller:OutdoorAir=ZONE OFFICE WHOLEBUILDING - MD OFFICE C END_A - STORY GROUND PSZ-AC OA SYSTEM CONTROLLER, Min OA fraction is used.
   **   ~~~   ** This may be overriding desired ventilation controls. Check inputs for Minimum Outdoor Air Flow Rate, Minimum Outdoor Air Schedule Name and Controller:MechanicalVentilation
   **   ~~~   ** Minimum OA fraction = 3.3868E-002, Mech Vent OA fraction = 7.0538E-003
   **   ~~~   **  Environment=RUN PERIOD 1, at Simulation time=01/02 21:00 - 22:00
   ** Warning ** CalcOAController: Minimum OA fraction > Mechanical Ventilation Controller request for Controller:OutdoorAir=ZONE OFFICE WHOLEBUILDING - MD OFFICE C END_A - STORY TOP PSZ-AC OA SYSTEM CONTROLLER, Min OA fraction is used.
   **   ~~~   ** This may be overriding desired ventilation controls. Check inputs for Minimum Outdoor Air Flow Rate, Minimum Outdoor Air Schedule Name and Controller:MechanicalVentilation
   **   ~~~   ** Minimum OA fraction = 3.0381E-002, Mech Vent OA fraction = 6.5328E-003
   **   ~~~   **  Environment=RUN PERIOD 1, at Simulation time=01/02 21:00 - 22:00
   ** Warning ** CalcOAController: Minimum OA fraction > Mechanical Ventilation Controller request for Controller:OutdoorAir=ZONE OFFICE WHOLEBUILDING - MD OFFICE C END_B - STORY GROUND PSZ-AC OA SYSTEM CONTROLLER, Min OA fraction is used.
   **   ~~~   ** This may be overriding desired ventilation controls. Check inputs for Minimum Outdoor Air Flow Rate, Minimum Outdoor Air Schedule Name and Controller:MechanicalVentilation
   **   ~~~   ** Minimum OA fraction = 3.4077E-002, Mech Vent OA fraction = 6.8239E-003
   **   ~~~   **  Environment=RUN PERIOD 1, at Simulation time=01/02 21:00 - 22:00
   ** Warning ** CalcOAController: Minimum OA fraction > Mechanical Ventilation Controller request for Controller:OutdoorAir=ZONE OFFICE WHOLEBUILDING - MD OFFICE C END_B - STORY TOP PSZ-AC OA SYSTEM CONTROLLER, Min OA fraction is used.
   **   ~~~   ** This may be overriding desired ventilation controls. Check inputs for Minimum Outdoor Air Flow Rate, Minimum Outdoor Air Schedule Name and Controller:MechanicalVentilation
   **   ~~~   ** Minimum OA fraction = 2.9547E-002, Mech Vent OA fraction = 6.0184E-003
   **   ~~~   **  Environment=RUN PERIOD 1, at Simulation time=01/02 21:00 - 22:00
   ** Warning ** CalcOAController: Minimum OA fraction > Mechanical Ventilation Controller request for Controller:OutdoorAir=ZONE OFFICE WHOLEBUILDING - MD OFFICE B  - STORY TOP PSZ-AC OA SYSTEM CONTROLLER, Min OA fraction is used.
   **   ~~~   ** This may be overriding desired ventilation controls. Check inputs for Minimum Outdoor Air Flow Rate, Minimum Outdoor Air Schedule Name and Controller:MechanicalVentilation
   **   ~~~   ** Minimum OA fraction = 9.4305E-002, Mech Vent OA fraction = 5.7874E-003
   **   ~~~   **  Environment=RUN PERIOD 1, at Simulation time=01/07 07:00 - 08:00
   ** Warning ** CalcDoe2DXCoil: Coil:Cooling:DX:SingleSpeed "ZONE OFFICE WHOLEBUILDING - MD OFFICE C END_B - STORY GROUND PSZ-AC 1SPD DX AC CLG COIL 7KBTU/HR 14.0SEER" - Full load outlet air dry-bulb temperature < 2C. This indicates the possibility of coil frost/freeze. Outlet temperature = 1.94 C.
   **   ~~~   **  ...Occurrence info = RUN PERIOD 1, 05/31 23:49 - 23:53
   **   ~~~   ** ... Possible reasons for low outlet air dry-bulb temperatures are: This DX coil
   **   ~~~   **    1) may have a low inlet air dry-bulb temperature. Inlet air temperature = 12.979 C.
   **   ~~~   **    2) may have a low air flow rate per watt of cooling capacity. Check inputs.
   **   ~~~   **    3) is used as part of a HX assisted cooling coil which uses a high sensible effectiveness. Check inputs.
   ** Warning ** CalcDoe2DXCoil: Coil:Cooling:DX:SingleSpeed "ZONE OFFICE WHOLEBUILDING - MD OFFICE C END_B - STORY TOP PSZ-AC 1SPD DX AC CLG COIL 9KBTU/HR 14.0SEER" - Full load outlet air dry-bulb temperature < 2C. This indicates the possibility of coil frost/freeze. Outlet temperature = 1.60 C.
   **   ~~~   **  ...Occurrence info = RUN PERIOD 1, 05/31 23:49 - 23:53
   **   ~~~   ** ... Possible reasons for low outlet air dry-bulb temperatures are: This DX coil
   **   ~~~   **    1) may have a low inlet air dry-bulb temperature. Inlet air temperature = 13.027 C.
   **   ~~~   **    2) may have a low air flow rate per watt of cooling capacity. Check inputs.
   **   ~~~   **    3) is used as part of a HX assisted cooling coil which uses a high sensible effectiveness. Check inputs.
   ** Warning ** CalcDoe2DXCoil: Coil:Cooling:DX:SingleSpeed "ZONE OFFICE WHOLEBUILDING - MD OFFICE A END_A - STORY GROUND PSZ-AC 1SPD DX AC CLG COIL 10KBTU/HR 14.0SEER" - Full load outlet air dry-bulb temperature < 2C. This indicates the possibility of coil frost/freeze. Outlet temperature = 1.80 C.
   **   ~~~   **  ...Occurrence info = RUN PERIOD 1, 05/31 23:53 - 23:56
   **   ~~~   ** ... Possible reasons for low outlet air dry-bulb temperatures are: This DX coil
   **   ~~~   **    1) may have a low inlet air dry-bulb temperature. Inlet air temperature = 12.617 C.
   **   ~~~   **    2) may have a low air flow rate per watt of cooling capacity. Check inputs.
   **   ~~~   **    3) is used as part of a HX assisted cooling coil which uses a high sensible effectiveness. Check inputs.
   ** Warning ** CalcDoe2DXCoil: Coil:Cooling:DX:SingleSpeed "ZONE OFFICE WHOLEBUILDING - MD OFFICE A END_B - STORY GROUND PSZ-AC 1SPD DX AC CLG COIL 9KBTU/HR 14.0SEER" - Full load outlet air dry-bulb temperature < 2C. This indicates the possibility of coil frost/freeze. Outlet temperature = 1.74 C.
   **   ~~~   **  ...Occurrence info = RUN PERIOD 1, 05/31 23:53 - 23:56
   **   ~~~   ** ... Possible reasons for low outlet air dry-bulb temperatures are: This DX coil
   **   ~~~   **    1) may have a low inlet air dry-bulb temperature. Inlet air temperature = 12.742 C.
   **   ~~~   **    2) may have a low air flow rate per watt of cooling capacity. Check inputs.
   **   ~~~   **    3) is used as part of a HX assisted cooling coil which uses a high sensible effectiveness. Check inputs.
   ** Warning ** CalcDoe2DXCoil: Coil:Cooling:DX:SingleSpeed "ZONE OFFICE WHOLEBUILDING - MD OFFICE C END_A - STORY GROUND PSZ-AC 1SPD DX AC CLG COIL 8KBTU/HR 14.0SEER" - Full load outlet air dry-bulb temperature < 2C. This indicates the possibility of coil frost/freeze. Outlet temperature = 1.31 C.
   **   ~~~   **  ...Occurrence info = RUN PERIOD 1, 05/31 23:53 - 23:56
   **   ~~~   ** ... Possible reasons for low outlet air dry-bulb temperatures are: This DX coil
   **   ~~~   **    1) may have a low inlet air dry-bulb temperature. Inlet air temperature = 12.471 C.
   **   ~~~   **    2) may have a low air flow rate per watt of cooling capacity. Check inputs.
   **   ~~~   **    3) is used as part of a HX assisted cooling coil which uses a high sensible effectiveness. Check inputs.
   ** Warning ** CalcDoe2DXCoil: Coil:Cooling:DX:SingleSpeed "ZONE OFFICE WHOLEBUILDING - MD OFFICE C END_A - STORY TOP PSZ-AC 1SPD DX AC CLG COIL 9KBTU/HR 14.0SEER" - Full load outlet air dry-bulb temperature < 2C. This indicates the possibility of coil frost/freeze. Outlet temperature = 1.94 C.
   **   ~~~   **  ...Occurrence info = RUN PERIOD 1, 05/31 23:53 - 23:56
   **   ~~~   ** ... Possible reasons for low outlet air dry-bulb temperatures are: This DX coil
   **   ~~~   **    1) may have a low inlet air dry-bulb temperature. Inlet air temperature = 13.512 C.
   **   ~~~   **    2) may have a low air flow rate per watt of cooling capacity. Check inputs.
   **   ~~~   **    3) is used as part of a HX assisted cooling coil which uses a high sensible effectiveness. Check inputs.
   ** Warning ** CalcDoe2DXCoil: Coil:Cooling:DX:SingleSpeed "ZONE OFFICE WHOLEBUILDING - MD OFFICE A END_B - STORY TOP PSZ-AC 1SPD DX AC CLG COIL 11KBTU/HR 14.0SEER" - Full load outlet air dry-bulb temperature < 2C. This indicates the possibility of coil frost/freeze. Outlet temperature = 1.86 C.
   **   ~~~   **  ...Occurrence info = RUN PERIOD 1, 06/01 00:04 - 00:07
   **   ~~~   ** ... Possible reasons for low outlet air dry-bulb temperatures are: This DX coil
   **   ~~~   **    1) may have a low inlet air dry-bulb temperature. Inlet air temperature = 13.654 C.
   **   ~~~   **    2) may have a low air flow rate per watt of cooling capacity. Check inputs.
   **   ~~~   **    3) is used as part of a HX assisted cooling coil which uses a high sensible effectiveness. Check inputs.
   ** Warning ** CalcDoe2DXCoil: Coil:Cooling:DX:SingleSpeed "ZONE OFFICE WHOLEBUILDING - MD OFFICE A END_A - STORY TOP PSZ-AC 1SPD DX AC CLG COIL 12KBTU/HR 14.0SEER" - Full load outlet air dry-bulb temperature < 2C. This indicates the possibility of coil frost/freeze. Outlet temperature = 1.99 C.
   **   ~~~   **  ...Occurrence info = RUN PERIOD 1, 06/01 00:14 - 00:18
   **   ~~~   ** ... Possible reasons for low outlet air dry-bulb temperatures are: This DX coil
   **   ~~~   **    1) may have a low inlet air dry-bulb temperature. Inlet air temperature = 14.298 C.
   **   ~~~   **    2) may have a low air flow rate per watt of cooling capacity. Check inputs.
   **   ~~~   **    3) is used as part of a HX assisted cooling coil which uses a high sensible effectiveness. Check inputs.
   ** Warning ** CalcDoe2DXCoil: Coil:Cooling:DX:SingleSpeed "ZONE OFFICE WHOLEBUILDING - MD OFFICE B END_B - STORY TOP PSZ-AC 1SPD DX AC CLG COIL 14KBTU/HR 14.0SEER" - Full load outlet air dry-bulb temperature < 2C. This indicates the possibility of coil frost/freeze. Outlet temperature = 1.89 C.
   **   ~~~   **  ...Occurrence info = RUN PERIOD 1, 06/01 00:49 - 00:53
   **   ~~~   ** ... Possible reasons for low outlet air dry-bulb temperatures are: This DX coil
   **   ~~~   **    1) may have a low inlet air dry-bulb temperature. Inlet air temperature = 14.997 C.
   **   ~~~   **    2) may have a low air flow rate per watt of cooling capacity. Check inputs.
   **   ~~~   **    3) is used as part of a HX assisted cooling coil which uses a high sensible effectiveness. Check inputs.
   ** Warning ** CalcDoe2DXCoil: Coil:Cooling:DX:SingleSpeed "ZONE OFFICE WHOLEBUILDING - MD OFFICE B END_A - STORY TOP PSZ-AC 1SPD DX AC CLG COIL 14KBTU/HR 14.0SEER" - Full load outlet air dry-bulb temperature < 2C. This indicates the possibility of coil frost/freeze. Outlet temperature = 1.42 C.
   **   ~~~   **  ...Occurrence info = RUN PERIOD 1, 06/02 00:41 - 00:44
   **   ~~~   ** ... Possible reasons for low outlet air dry-bulb temperatures are: This DX coil
   **   ~~~   **    1) may have a low inlet air dry-bulb temperature. Inlet air temperature = 12.460 C.
   **   ~~~   **    2) may have a low air flow rate per watt of cooling capacity. Check inputs.
   **   ~~~   **    3) is used as part of a HX assisted cooling coil which uses a high sensible effectiveness. Check inputs.
   ** Warning ** CalcDoe2DXCoil: Coil:Cooling:DX:SingleSpeed "ZONE OFFICE WHOLEBUILDING - MD OFFICE A  - STORY TOP PSZ-AC 1SPD DX AC CLG COIL 26KBTU/HR 14.0SEER" - Full load outlet air dry-bulb temperature < 2C. This indicates the possibility of coil frost/freeze. Outlet temperature = 1.99 C.
   **   ~~~   **  ...Occurrence info = RUN PERIOD 1, 06/02 00:51 - 00:54
   **   ~~~   ** ... Possible reasons for low outlet air dry-bulb temperatures are: This DX coil
[...]
   **   ~~~   ** 6067.0 hours were uncomfortable in zone: ZONE OFFICE WHOLEBUILDING - MD OFFICE C  - STORY GROUND
   **   ~~~   ** 5710.0 hours were uncomfortable in zone: ZONE OFFICE WHOLEBUILDING - MD OFFICE C  - STORY TOP
   **   ~~~   ** 6731.0 hours were uncomfortable in zone: ZONE OFFICE WHOLEBUILDING - MD OFFICE C END_A - STORY GROUND
   **   ~~~   ** 6422.0 hours were uncomfortable in zone: ZONE OFFICE WHOLEBUILDING - MD OFFICE C END_A - STORY TOP
   **   ~~~   ** 6611.0 hours were uncomfortable in zone: ZONE OFFICE WHOLEBUILDING - MD OFFICE C END_B - STORY GROUND
   **   ~~~   ** 6349.0 hours were uncomfortable in zone: ZONE OFFICE WHOLEBUILDING - MD OFFICE C END_B - STORY TOP
   ** Warning ** The resource referenced by LifeCycleCost:UsePriceEscalation= "U.S. AVG  COMMERCIAL-ELECTRICITY" has no energy cost. 
   **   ~~~   ** ... It is likely that the wrong resource is used. The resource should match the meter used in Utility:Tariff.
   ** Warning ** The resource referenced by LifeCycleCost:UsePriceEscalation= "U.S. AVG  COMMERCIAL-DISTILLATE OIL" has no energy cost. 
   **   ~~~   ** ... It is likely that the wrong resource is used. The resource should match the meter used in Utility:Tariff.
   ** Warning ** The resource referenced by LifeCycleCost:UsePriceEscalation= "U.S. AVG  COMMERCIAL-RESIDUAL OIL" has no energy cost. 
   **   ~~~   ** ... It is likely that the wrong resource is used. The resource should match the meter used in Utility:Tariff.
   ** Warning ** The resource referenced by LifeCycleCost:UsePriceEscalation= "U.S. AVG  COMMERCIAL-NATURAL GAS" has no energy cost. 
   **   ~~~   ** ... It is likely that the wrong resource is used. The resource should match the meter used in Utility:Tariff.
   ** Warning ** The resource referenced by LifeCycleCost:UsePriceEscalation= "U.S. AVG  COMMERCIAL-COAL" has no energy cost. 
   **   ~~~   ** ... It is likely that the wrong resource is used. The resource should match the meter used in Utility:Tariff.
   ************* Simulation Error Summary *************
   ************* There are 10 unused schedules in input.
   ************* There are 26 unused week schedules in input.
   ************* There are 60 unused day schedules in input.
   ************* Use Output:Diagnostics,DisplayUnusedSchedules; to see them.
   *************
   ************* ===== Recurring Error Summary =====
   ************* The following recurring error messages occurred.
   *************
   *************  ** Warning ** "OFFICE WHOLEBUILDING - MD OFFICE - 90.1-2016 SERVICE WATER USE 0.13GPM AT 140F" - Target water temperature should be less than or equal to the hot water temperature error continues...
   *************  **   ~~~   **   This error occurred 188799 total times;
   *************  **   ~~~   **   during Warmup 0 times;
   *************  **   ~~~   **   during Sizing 0 times.
   *************  **   ~~~   **   Max=40.396143  Min=18.770525
   *************
   *************  ** Warning ** Controller:OutdoorAir="ZONE OFFICE WHOLEBUILDING - MD OFFICE A  - STORY TOP PSZ-AC OA SYSTEM CONTROLLER": Min OA fraction > Mechanical ventilation OA fraction, continues...
   *************  **   ~~~   **   This error occurred 113 total times;
   *************  **   ~~~   **   during Warmup 0 times;
   *************  **   ~~~   **   during Sizing 0 times.
   *************  **   ~~~   **   Max=0.048382  Min=0.048382
   *************
   *************  ** Warning ** Controller:OutdoorAir="ZONE OFFICE WHOLEBUILDING - MD OFFICE A END_A - STORY GROUND PSZ-AC OA SYSTEM CONTROLLER": Min OA fraction > Mechanical ventilation OA fraction, continues...
   *************  **   ~~~   **   This error occurred 132 total times;
   *************  **   ~~~   **   during Warmup 0 times;
   *************  **   ~~~   **   during Sizing 0 times.
   *************  **   ~~~   **   Max=0.029166  Min=0.029166
   *************
   *************  ** Warning ** Controller:OutdoorAir="ZONE OFFICE WHOLEBUILDING - MD OFFICE A END_A - STORY TOP PSZ-AC OA SYSTEM CONTROLLER": Min OA fraction > Mechanical ventilation OA fraction, continues...
   *************  **   ~~~   **   This error occurred 136 total times;
   *************  **   ~~~   **   during Warmup 0 times;
   *************  **   ~~~   **   during Sizing 0 times.
   *************  **   ~~~   **   Max=0.026659  Min=0.026659
   *************
   *************  ** Warning ** Controller:OutdoorAir="ZONE OFFICE WHOLEBUILDING - MD OFFICE A END_B - STORY GROUND PSZ-AC OA SYSTEM CONTROLLER": Min OA fraction > Mechanical ventilation OA fraction, continues...
   *************  **   ~~~   **   This error occurred 129 total times;
   *************  **   ~~~   **   during Warmup 0 times;
   *************  **   ~~~   **   during Sizing 0 times.
   *************  **   ~~~   **   Max=0.029658  Min=0.029658
   *************
   *************  ** Warning ** Controller:OutdoorAir="ZONE OFFICE WHOLEBUILDING - MD OFFICE A END_B - STORY TOP PSZ-AC OA SYSTEM CONTROLLER": Min OA fraction > Mechanical ventilation OA fraction, continues...
   *************  **   ~~~   **   This error occurred 131 total times;
   *************  **   ~~~   **   during Warmup 0 times;
   *************  **   ~~~   **   during Sizing 0 times.
   *************  **   ~~~   **   Max=0.026704  Min=0.026704
   *************
   *************  ** Warning ** Controller:OutdoorAir="ZONE OFFICE WHOLEBUILDING - MD OFFICE C  - STORY GROUND PSZ-AC OA SYSTEM CONTROLLER": Min OA fraction > Mechanical ventilation OA fraction, continues...
   *************  **   ~~~   **   This error occurred 141 total times;
   *************  **   ~~~   **   during Warmup 0 times;
   *************  **   ~~~   **   during Sizing 0 times.
   *************  **   ~~~   **   Max=0.091201  Min=0.091201
   *************
   *************  ** Warning ** Controller:OutdoorAir="ZONE OFFICE WHOLEBUILDING - MD OFFICE C  - STORY TOP PSZ-AC OA SYSTEM CONTROLLER": Min OA fraction > Mechanical ventilation OA fraction, continues...
   *************  **   ~~~   **   This error occurred 141 total times;
   *************  **   ~~~   **   during Warmup 0 times;
   *************  **   ~~~   **   during Sizing 0 times.
   *************  **   ~~~   **   Max=0.080780  Min=0.080780
   *************
   *************  ** Warning ** Controller:OutdoorAir="ZONE OFFICE WHOLEBUILDING - MD OFFICE C END_A - STORY GROUND PSZ-AC OA SYSTEM CONTROLLER": Min OA fraction > Mechanical ventilation OA fraction, continues...
   *************  **   ~~~   **   This error occurred 149 total times;
   *************  **   ~~~   **   during Warmup 0 times;
   *************  **   ~~~   **   during Sizing 0 times.
   *************  **   ~~~   **   Max=0.033868  Min=0.033868
   *************
   *************  ** Warning ** Controller:OutdoorAir="ZONE OFFICE WHOLEBUILDING - MD OFFICE C END_A - STORY TOP PSZ-AC OA SYSTEM CONTROLLER": Min OA fraction > Mechanical ventilation OA fraction, continues...
   *************  **   ~~~   **   This error occurred 155 total times;
   *************  **   ~~~   **   during Warmup 0 times;
   *************  **   ~~~   **   during Sizing 0 times.
   *************  **   ~~~   **   Max=0.030381  Min=0.030381
   *************
   *************  ** Warning ** Controller:OutdoorAir="ZONE OFFICE WHOLEBUILDING - MD OFFICE C END_B - STORY GROUND PSZ-AC OA SYSTEM CONTROLLER": Min OA fraction > Mechanical ventilation OA fraction, continues...
   *************  **   ~~~   **   This error occurred 148 total times;
   *************  **   ~~~   **   during Warmup 0 times;
   *************  **   ~~~   **   during Sizing 0 times.
   *************  **   ~~~   **   Max=0.034077  Min=0.034077
   *************
   *************  ** Warning ** Controller:OutdoorAir="ZONE OFFICE WHOLEBUILDING - MD OFFICE C END_B - STORY TOP PSZ-AC OA SYSTEM CONTROLLER": Min OA fraction > Mechanical ventilation OA fraction, continues...
   *************  **   ~~~   **   This error occurred 154 total times;
   *************  **   ~~~   **   during Warmup 0 times;
   *************  **   ~~~   **   during Sizing 0 times.
   *************  **   ~~~   **   Max=0.029547  Min=0.029547
   *************
   *************  ** Warning ** Controller:OutdoorAir="ZONE OFFICE WHOLEBUILDING - MD OFFICE A  - STORY GROUND PSZ-AC OA SYSTEM CONTROLLER": Min OA fraction > Mechanical ventilation OA fraction, continues...
   *************  **   ~~~   **   This error occurred 99 total times;
   *************  **   ~~~   **   during Warmup 0 times;
   *************  **   ~~~   **   during Sizing 0 times.
   *************  **   ~~~   **   Max=0.055634  Min=0.055634
   *************
   *************  ** Warning ** Controller:OutdoorAir="ZONE OFFICE WHOLEBUILDING - MD OFFICE B END_A - STORY GROUND PSZ-AC OA SYSTEM CONTROLLER": Min OA fraction > Mechanical ventilation OA fraction, continues...
   *************  **   ~~~   **   This error occurred 93 total times;
   *************  **   ~~~   **   during Warmup 0 times;
   *************  **   ~~~   **   during Sizing 0 times.
   *************  **   ~~~   **   Max=0.040879  Min=0.040879
   *************
   *************  ** Warning ** Controller:OutdoorAir="ZONE OFFICE WHOLEBUILDING - MD OFFICE B END_A - STORY TOP PSZ-AC OA SYSTEM CONTROLLER": Min OA fraction > Mechanical ventilation OA fraction, continues...
   *************  **   ~~~   **   This error occurred 106 total times;
   *************  **   ~~~   **   during Warmup 0 times;
   *************  **   ~~~   **   during Sizing 0 times.
   *************  **   ~~~   **   Max=0.036034  Min=0.036034
   *************
   *************  ** Warning ** Controller:OutdoorAir="ZONE OFFICE WHOLEBUILDING - MD OFFICE B END_B - STORY GROUND PSZ-AC OA SYSTEM CONTROLLER": Min OA fraction > Mechanical ventilation OA fraction, continues...
   *************  **   ~~~   **   This error occurred 88 total times;
   *************  **   ~~~   **   during Warmup 0 times;
   *************  **   ~~~   **   during Sizing 0 times.
   *************  **   ~~~   **   Max=0.039972  Min=0.039972
   *************
   *************  ** Warning ** Controller:OutdoorAir="ZONE OFFICE WHOLEBUILDING - MD OFFICE B END_B - STORY TOP PSZ-AC OA SYSTEM CONTROLLER": Min OA fraction > Mechanical ventilation OA fraction, continues...
   *************  **   ~~~   **   This error occurred 103 total times;
   *************  **   ~~~   **   during Warmup 0 times;
   *************  **   ~~~   **   during Sizing 0 times.
   *************  **   ~~~   **   Max=0.034632  Min=0.034632
   *************
   *************  ** Warning ** CalcDoe2DXCoil: Coil:Cooling:DX:SingleSpeed="ZONE OFFICE WHOLEBUILDING - MD OFFICE C END_B - STORY GROUND PSZ-AC 1SPD DX AC CLG COIL 7KBTU/HR 14.0SEER" - Full load outlet temperature indicates a possibility of frost/freeze error continues. Outlet air temperature statistics follow:
   *************  **   ~~~   **   This error occurred 50 total times;
   *************  **   ~~~   **   during Warmup 0 times;
   *************  **   ~~~   **   during Sizing 0 times.
   *************  **   ~~~   **   Max=1.943757  Min=-3.519606
   *************
   *************  ** Warning ** CalcDoe2DXCoil: Coil:Cooling:DX:SingleSpeed="ZONE OFFICE WHOLEBUILDING - MD OFFICE C END_B - STORY TOP PSZ-AC 1SPD DX AC CLG COIL 9KBTU/HR 14.0SEER" - Full load outlet temperature indicates a possibility of frost/freeze error continues. Outlet air temperature statistics follow:
   *************  **   ~~~   **   This error occurred 43 total times;
   *************  **   ~~~   **   during Warmup 0 times;
   *************  **   ~~~   **   during Sizing 0 times.
   *************  **   ~~~   **   Max=1.599263  Min=-5.557276
   *************
   *************  ** Warning ** CalcDoe2DXCoil: Coil:Cooling:DX:SingleSpeed="ZONE OFFICE WHOLEBUILDING - MD OFFICE A END_A - STORY GROUND PSZ-AC 1SPD DX AC CLG COIL 10KBTU/HR 14.0SEER" - Full load outlet temperature indicates a possibility of frost/freeze error continues. Outlet air temperature statistics follow:
   *************  **   ~~~   **   This error occurred 47 total times;
   *************  **   ~~~   **   during Warmup 0 times;
   *************  **   ~~~   **   during Sizing 0 times.
   *************  **   ~~~   **   Max=1.871650  Min=-3.936471
   *************
   *************  ** Warning ** CalcDoe2DXCoil: Coil:Cooling:DX:SingleSpeed="ZONE OFFICE WHOLEBUILDING - MD OFFICE A END_B - STORY GROUND PSZ-AC 1SPD DX AC CLG COIL 9KBTU/HR 14.0SEER" - Full load outlet temperature indicates a possibility of frost/freeze error continues. Outlet air temperature statistics follow:
   *************  **   ~~~   **   This error occurred 47 total times;
   *************  **   ~~~   **   during Warmup 0 times;
   *************  **   ~~~   **   during Sizing 0 times.
   *************  **   ~~~   **   Max=1.740163  Min=-3.934193
   *************
   *************  ** Warning ** CalcDoe2DXCoil: Coil:Cooling:DX:SingleSpeed="ZONE OFFICE WHOLEBUILDING - MD OFFICE C END_A - STORY GROUND PSZ-AC 1SPD DX AC CLG COIL 8KBTU/HR 14.0SEER" - Full load outlet temperature indicates a possibility of frost/freeze error continues. Outlet air temperature statistics follow:
   *************  **   ~~~   **   This error occurred 49 total times;
   *************  **   ~~~   **   during Warmup 0 times;
   *************  **   ~~~   **   during Sizing 0 times.
   *************  **   ~~~   **   Max=1.573722  Min=-3.340771
   *************
   *************  ** Warning ** CalcDoe2DXCoil: Coil:Cooling:DX:SingleSpeed="ZONE OFFICE WHOLEBUILDING - MD OFFICE C END_A - STORY TOP PSZ-AC 1SPD DX AC CLG COIL 9KBTU/HR 14.0SEER" - Full load outlet temperature indicates a possibility of frost/freeze error continues. Outlet air temperature statistics follow:
   *************  **   ~~~   **   This error occurred 42 total times;
   *************  **   ~~~   **   during Warmup 0 times;
   *************  **   ~~~   **   during Sizing 0 times.
   *************  **   ~~~   **   Max=1.944908  Min=-4.967655
   *************
   *************  ** Warning ** CalcDoe2DXCoil: Coil:Cooling:DX:SingleSpeed="ZONE OFFICE WHOLEBUILDING - MD OFFICE A END_B - STORY TOP PSZ-AC 1SPD DX AC CLG COIL 11KBTU/HR 14.0SEER" - Full load outlet temperature indicates a possibility of frost/freeze error continues. Outlet air temperature statistics follow:
   *************  **   ~~~   **   This error occurred 40 total times;
   *************  **   ~~~   **   during Warmup 0 times;
   *************  **   ~~~   **   during Sizing 0 times.
   *************  **   ~~~   **   Max=1.874727  Min=-5.536524
   *************
   *************  ** Warning ** CalcDoe2DXCoil: Coil:Cooling:DX:SingleSpeed="ZONE OFFICE WHOLEBUILDING - MD OFFICE A END_A - STORY TOP PSZ-AC 1SPD DX AC CLG COIL 12KBTU/HR 14.0SEER" - Full load outlet temperature indicates a possibility of frost/freeze error continues. Outlet air temperature statistics follow:
   *************  **   ~~~   **   This error occurred 38 total times;
   *************  **   ~~~   **   during Warmup 0 times;
   *************  **   ~~~   **   during Sizing 0 times.
   *************  **   ~~~   **   Max=1.989815  Min=-5.413840
   *************
   *************  ** Warning ** CalcDoe2DXCoil: Coil:Cooling:DX:SingleSpeed="ZONE OFFICE WHOLEBUILDING - MD OFFICE B END_B - STORY TOP PSZ-AC 1SPD DX AC CLG COIL 14KBTU/HR 14.0SEER" - Full load outlet temperature indicates a possibility of frost/freeze error continues. Outlet air temperature statistics follow:
   *************  **   ~~~   **   This error occurred 29 total times;
   *************  **   ~~~   **   during Warmup 0 times;
   *************  **   ~~~   **   during Sizing 0 times.
   *************  **   ~~~   **   Max=1.887725  Min=-1.980363
   *************
   *************  ** Warning ** CalcDoe2DXCoil: Coil:Cooling:DX:SingleSpeed="ZONE OFFICE WHOLEBUILDING - MD OFFICE B END_A - STORY TOP PSZ-AC 1SPD DX AC CLG COIL 14KBTU/HR 14.0SEER" - Full load outlet temperature indicates a possibility of frost/freeze error continues. Outlet air temperature statistics follow:
   *************  **   ~~~   **   This error occurred 23 total times;
   *************  **   ~~~   **   during Warmup 0 times;
   *************  **   ~~~   **   during Sizing 0 times.
   *************  **   ~~~   **   Max=1.564114  Min=-1.664186
   *************
   *************  ** Warning ** CalcDoe2DXCoil: Coil:Cooling:DX:SingleSpeed="ZONE OFFICE WHOLEBUILDING - MD OFFICE A  - STORY TOP PSZ-AC 1SPD DX AC CLG COIL 26KBTU/HR 14.0SEER" - Full load outlet temperature indicates a possibility of frost/freeze error continues. Outlet air temperature statistics follow:
   *************  **   ~~~   **   This error occurred 10 total times;
   *************  **   ~~~   **   during Warmup 0 times;
   *************  **   ~~~   **   during Sizing 0 times.
   *************  **   ~~~   **   Max=1.992188  Min=0.835068
   *************
   *************  ** Warning ** CalcDoe2DXCoil: Coil:Cooling:DX:SingleSpeed="ZONE OFFICE WHOLEBUILDING - MD OFFICE B END_B - STORY GROUND PSZ-AC 1SPD DX AC CLG COIL 11KBTU/HR 14.0SEER" - Full load outlet temperature indicates a possibility of frost/freeze error continues. Outlet air temperature statistics follow:
   *************  **   ~~~   **   This error occurred 17 total times;
   *************  **   ~~~   **   during Warmup 0 times;
   *************  **   ~~~   **   during Sizing 0 times.
   *************  **   ~~~   **   Max=1.994629  Min=0.919862
   *************
   *************  ** Warning ** CalcDoe2DXCoil: Coil:Cooling:DX:SingleSpeed="ZONE OFFICE WHOLEBUILDING - MD OFFICE B END_A - STORY GROUND PSZ-AC 1SPD DX AC CLG COIL 11KBTU/HR 14.0SEER" - Full load outlet temperature indicates a possibility of frost/freeze error continues. Outlet air temperature statistics follow:
   *************  **   ~~~   **   This error occurred 14 total times;
   *************  **   ~~~   **   during Warmup 0 times;
   *************  **   ~~~   **   during Sizing 0 times.
   *************  **   ~~~   **   Max=1.973194  Min=1.108461
   *************
   *************  ** Warning ** CalcDoe2DXCoil: Coil:Cooling:DX:SingleSpeed="ZONE OFFICE WHOLEBUILDING - MD OFFICE C  - STORY TOP PSZ-AC 1SPD DX AC CLG COIL 12KBTU/HR 14.0SEER" - Full load outlet temperature indicates a possibility of frost/freeze error continues. Outlet air temperature statistics follow:
   *************  **   ~~~   **   This error occurred 5 total times;
   *************  **   ~~~   **   during Warmup 0 times;
   *************  **   ~~~   **   during Sizing 0 times.
   *************  **   ~~~   **   Max=1.967296  Min=1.796013
   *************
   *************  ** Warning ** Controller:OutdoorAir="ZONE OFFICE WHOLEBUILDING - MD OFFICE B  - STORY TOP PSZ-AC OA SYSTEM CONTROLLER": Min OA fraction > Mechanical ventilation OA fraction, continues...
   *************  **   ~~~   **   This error occurred 1 total times;
   *************  **   ~~~   **   during Warmup 0 times;
   *************  **   ~~~   **   during Sizing 0 times.
   *************  **   ~~~   **   Max=0.094305  Min=0.094305
   *************
   *************
   ************* ===== Final Error Summary =====
   ************* The following error categories occurred.  Consider correcting or noting.
   ************* Nominally Unused Constructions
   ************* ..The nominally unused constructions warning is provided to alert you to potential conditions that can cause
   ************* ..extra time during simulation. Each construction is calculated by the algorithm indicated in the HeatBalanceAlgorithm
   ************* ..object. You may remove the constructions indicated (when you use the DisplayExtraWarnings option).
   *************
   ************* EnergyPlus Warmup Error Summary. During Warmup: 0 Warning; 0 Severe Errors.
   ************* EnergyPlus Sizing Error Summary. During Sizing: 116 Warning; 1 Severe Errors.
   ************* EnergyPlus Completed Successfully-- 191529 Warning; 1 Severe Errors; Elapsed Time=00hr 00min 21.99sec
