Program Version,EnergyPlus, Version 22.2.0-aa78da9668, YMD=2023.06.14 13:52
! <Version>, Version ID
 Version, 22.2
! <Timesteps per Hour>, #TimeSteps, Minutes per TimeStep {minutes}
 Timesteps per Hour,  1, 60
! <System Convergence Limits>, Minimum System TimeStep {minutes}, Max HVAC Iterations, Minimum Plant Iterations, Maximum Plant Iterations
 System Convergence Limits, 1, 20, 2, 8
! <Simulation Control>, Do Zone Sizing, Do System Sizing, Do Plant Sizing, Do Design Days, Do Weather Simulation, Do HVAC Sizing Simulation
 Simulation Control, Yes, Yes, Yes, No, Yes, No
! <Performance Precision Tradeoffs>, Use Coil Direct Simulation, Zone Radiant Exchange Algorithm, Override Mode, Number of Timestep In Hour, Force Euler Method, Minimum Number of Warmup Days, Force Suppress All Begin Environment Resets, Minimum System Timestep, MaxZoneTempDiff, MaxAllowedDelTemp
 Performance Precision Tradeoffs, No, ScriptF, Normal, 1, No, 1, No, 1.0, 0.300, 2.0000E-003
! <Output Reporting Tolerances>, Tolerance for Time Heating Setpoint Not Met, Tolerance for Zone Cooling Setpoint Not Met Time
 Output Reporting Tolerances, 0.556, 0.556, 
! <Site:GroundTemperature:BuildingSurface>,Jan{C},Feb{C},Mar{C},Apr{C},May{C},Jun{C},Jul{C},Aug{C},Sep{C},Oct{C},Nov{C},Dec{C}
 Site:GroundTemperature:BuildingSurface,  18.00,  18.00,  18.00,  18.00,  18.00,  18.00,  18.00,  18.00,  18.00,  18.00,  18.00,  18.00
! <Site:GroundTemperature:FCfactorMethod>,Jan{C},Feb{C},Mar{C},Apr{C},May{C},Jun{C},Jul{C},Aug{C},Sep{C},Oct{C},Nov{C},Dec{C}
 Site:GroundTemperature:FCfactorMethod,  -3.10, -17.70, -19.30, -17.60, -15.40, -10.30,   0.70,  10.60,  16.00,  16.90,  14.20,   6.70
! <Site:GroundTemperature:Shallow>,Jan{C},Feb{C},Mar{C},Apr{C},May{C},Jun{C},Jul{C},Aug{C},Sep{C},Oct{C},Nov{C},Dec{C}
 Site:GroundTemperature:Shallow,  13.00,  13.00,  13.00,  13.00,  13.00,  13.00,  13.00,  13.00,  13.00,  13.00,  13.00,  13.00
! <Site:GroundTemperature:Deep>,Jan{C},Feb{C},Mar{C},Apr{C},May{C},Jun{C},Jul{C},Aug{C},Sep{C},Oct{C},Nov{C},Dec{C}
 Site:GroundTemperature:Deep,  16.00,  16.00,  16.00,  16.00,  16.00,  16.00,  16.00,  16.00,  16.00,  16.00,  16.00,  16.00
! <Site:GroundReflectance>,Jan{dimensionless},Feb{dimensionless},Mar{dimensionless},Apr{dimensionless},May{dimensionless},Jun{dimensionless},Jul{dimensionless},Aug{dimensionless},Sep{dimensionless},Oct{dimensionless},Nov{dimensionless},Dec{dimensionless}
 Site:GroundReflectance,  0.20,  0.20,  0.20,  0.20,  0.20,  0.20,  0.20,  0.20,  0.20,  0.20,  0.20,  0.20
! <Site:GroundReflectance:SnowModifier>, Normal, Daylighting {dimensionless}
 Site:GroundReflectance:SnowModifier,   1.000,   1.000
! <Site:GroundReflectance:Snow>,Jan{dimensionless},Feb{dimensionless},Mar{dimensionless},Apr{dimensionless},May{dimensionless},Jun{dimensionless},Jul{dimensionless},Aug{dimensionless},Sep{dimensionless},Oct{dimensionless},Nov{dimensionless},Dec{dimensionless}
 Site:GroundReflectance:Snow,  0.20,  0.20,  0.20,  0.20,  0.20,  0.20,  0.20,  0.20,  0.20,  0.20,  0.20,  0.20
! <Site:GroundReflectance:Snow:Daylighting>,Jan{dimensionless},Feb{dimensionless},Mar{dimensionless},Apr{dimensionless},May{dimensionless},Jun{dimensionless},Jul{dimensionless},Aug{dimensionless},Sep{dimensionless},Oct{dimensionless},Nov{dimensionless},Dec{dimensionless}
 Site:GroundReflectance:Snow:Daylighting,  0.20,  0.20,  0.20,  0.20,  0.20,  0.20,  0.20,  0.20,  0.20,  0.20,  0.20,  0.20
! <Environment:Weather Station>,Wind Sensor Height Above Ground {m},Wind Speed Profile Exponent {},Wind Speed Profile Boundary Layer Thickness {m},Air Temperature Sensor Height Above Ground {m},Wind Speed Modifier Coefficient-Internal,Temperature Modifier Coefficient-Internal
Environment:Weather Station,10.000,0.140,270.000,1.500,1.586,9.750E-003
! <Site:Location>, Location Name, Latitude {N+/S- Deg}, Longitude {E+/W- Deg},  Time Zone Number {GMT+/-}, Elevation {m},  Standard Pressure at Elevation {Pa}, Standard RhoAir at Elevation
Site:Location,Kodiak Airport AK USA TMY3 WMO#=703500,57.75,-152.50,-9.00,5.00,101265,1.2036
! <Site Water Mains Temperature Information>,Calculation Method{},Water Mains Temperature Schedule Name{},Annual Average Outdoor Air Temperature{C},Maximum Difference In Monthly Average Outdoor Air Temperatures{deltaC},Fixed Default Water Mains Temperature{C}
Site Water Mains Temperature Information,Correlation,NA,-1.53,36.20,NA
! <Building Information>, Building Name,North Axis {deg},Terrain,  Loads Convergence Tolerance Value,Temperature Convergence Tolerance Value,  Solar Distribution,Maximum Number of Warmup Days,Minimum Number of Warmup Days
 Building Information,DOE Ref 1980-2004|Warehouse,0.000,City,4.00000E-002,0.20000,FullInteriorAndExterior,25,6
! <Inside Convection Algorithm>, Algorithm {Simple | TARP | CeilingDiffuser | AdaptiveConvectionAlgorithm}
Inside Convection Algorithm,TARP
! <Outside Convection Algorithm>, Algorithm {SimpleCombined | TARP | MoWitt | DOE-2 | AdaptiveConvectionAlgorithm}
Outside Convection Algorithm,TARP
! <Sky Radiance Distribution>, Value {Anisotropic}
Sky Radiance Distribution,Anisotropic
! <Zone Air Solution Algorithm>, Value {ThirdOrderBackwardDifference | AnalyticalSolution | EulerMethod}
 Zone Air Solution Algorithm, ThirdOrderBackwardDifference
! <Zone Air Carbon Dioxide Balance Simulation>, Simulation {Yes/No}, Carbon Dioxide Concentration
 Zone Air Carbon Dioxide Balance Simulation, No,N/A
! <Zone Air Generic Contaminant Balance Simulation>, Simulation {Yes/No}, Generic Contaminant Concentration
 Zone Air Generic Contaminant Balance Simulation, No,N/A
! <Zone Air Mass Flow Balance Simulation>, Enforce Mass Balance, Adjust Zone Mixing and Return {AdjustMixingOnly | AdjustReturnOnly | AdjustMixingThenReturn | AdjustReturnThenMixing | None}, Adjust Zone Infiltration {AddInfiltration | AdjustInfiltration | None}, Infiltration Zones {MixingSourceZonesOnly | AllZones}
 Zone Air Mass Flow Balance Simulation, No,N/A,N/A,N/A
! <HVACSystemRootFindingAlgorithm>, Value {RegulaFalsi | Bisection | BisectionThenRegulaFalsi | RegulaFalsiThenBisection}
 HVACSystemRootFindingAlgorithm, RegulaFalsi
! <Environment:Site Atmospheric Variation>,Wind Speed Profile Exponent {},Wind Speed Profile Boundary Layer Thickness {m},Air Temperature Gradient Coefficient {K/m}
Environment:Site Atmospheric Variation,0.330,460.000,6.500000E-003
! <Surface Geometry>,Starting Corner,Vertex Input Direction,Coordinate System,Daylight Reference Point Coordinate System,Rectangular (Simple) Surface Coordinate System
 Surface Geometry,UpperLeftCorner,Counterclockwise,RelativeCoordinateSystem,RelativeCoordinateSystem,RelativeToZoneOrigin
! <Surface Heat Transfer Algorithm>, Value {CTF - ConductionTransferFunction | EMPD - MoisturePenetrationDepthConductionTransferFunction | CondFD - ConductionFiniteDifference | HAMT - CombinedHeatAndMoistureFiniteElement} - Description,Inside Surface Max Temperature Limit{C}, Surface Convection Coefficient Lower Limit {W/m2-K}, Surface Convection Coefficient Upper Limit {W/m2-K}
Surface Heat Transfer Algorithm, CTF - ConductionTransferFunction,200,0.10,1000.0
! <Shading Summary>, Number of Fixed Detached Shades, Number of Building Detached Shades, Number of Attached Shades
 Shading Summary,0,0,0
! <Zone Summary>, Number of Zones, Number of Zone Surfaces, Number of SubSurfaces
 Zone Summary,24,187,28
! <Zone Information>,Zone Name,North Axis {deg},Origin X-Coordinate {m},Origin Y-Coordinate {m},Origin Z-Coordinate {m},Centroid X-Coordinate {m},Centroid Y-Coordinate {m},Centroid Z-Coordinate {m},Type,Zone Multiplier,Zone List Multiplier,Minimum X {m},Maximum X {m},Minimum Y {m},Maximum Y {m},Minimum Z {m},Maximum Z {m},Ceiling Height {m},Volume {m3},Zone Inside Convection Algorithm {Simple-Detailed-CeilingDiffuser-TrombeWall},Zone Outside Convection Algorithm {Simple-Detailed-Tarp-MoWitt-DOE-2-BLAST}, Floor Area {m2},Exterior Gross Wall Area {m2},Exterior Net Wall Area {m2},Exterior Window Area {m2}, Number of Surfaces, Number of SubSurfaces, Number of Shading SubSurfaces,  Part of Total Building Area
 Zone Information, ZONE WAREHOUSE BULK A  - STORY GROUND,0.0,13.76,-26.29,0.00,24.31,-24.00,3.51,1,1,1,13.76,34.86,-26.29,-21.72,0.00,7.01,7.01,676.57,TARP,TARP,96.51,147.98,125.78,22.20,6,1,0,Yes
 Zone Information, ZONE WAREHOUSE BULK A  - STORY TOP,0.0,-34.86,-26.29,7.01,8.40E-016,-24.00,10.52,1,1,1,-34.86,34.86,-26.29,-21.72,7.01,14.02,7.01,2234.89,TARP,TARP,318.80,488.82,415.50,73.32,8,1,0,Yes
 Zone Information, ZONE WAREHOUSE BULK A END_A - STORY TOP,0.0,-39.44,-26.29,7.01,-37.15,-24.00,10.52,1,1,1,-39.44,-34.86,-26.29,-21.72,7.01,14.02,7.01,146.54,TARP,TARP,20.90,64.10,54.49,9.62,6,2,0,Yes
 Zone Information, ZONE WAREHOUSE BULK A END_B - STORY GROUND,0.0,34.86,-26.29,0.00,37.15,-24.00,3.51,1,1,1,34.86,39.44,-26.29,-21.72,0.00,7.01,7.01,146.54,TARP,TARP,20.90,64.10,54.49,9.62,6,2,0,Yes
 Zone Information, ZONE WAREHOUSE BULK A END_B - STORY TOP,0.0,34.86,-26.29,7.01,37.15,-24.00,10.52,1,1,1,34.86,39.44,-26.29,-21.72,7.01,14.02,7.01,146.54,TARP,TARP,20.90,64.10,54.49,9.62,6,2,0,Yes
 Zone Information, ZONE WAREHOUSE BULK B  - STORY GROUND,0.0,13.76,-21.72,0.00,24.31,-1.57E-014,3.51,1,1,1,13.76,34.86,-21.72,21.72,0.00,7.01,7.01,6427.88,TARP,TARP,916.91,0.00,0.00,0.00,6,0,0,Yes
 Zone Information, ZONE WAREHOUSE BULK B  - STORY TOP,0.0,-34.86,-21.72,7.01,-5.45E-017,-1.61E-014,10.52,1,1,1,-34.86,34.86,-21.72,21.72,7.01,14.02,7.01,21233.07,TARP,TARP,3028.80,0.00,0.00,0.00,8,0,0,Yes
 Zone Information, ZONE WAREHOUSE BULK B END_A - STORY TOP,0.0,-39.44,-21.72,7.01,-37.15,-1.49E-014,10.52,1,1,1,-39.44,-34.86,-21.72,21.72,7.01,14.02,7.01,1392.23,TARP,TARP,198.60,304.51,258.84,45.68,6,1,0,Yes
 Zone Information, ZONE WAREHOUSE BULK B END_B - STORY GROUND,0.0,34.86,-21.72,0.00,37.15,-1.50E-014,3.51,1,1,1,34.86,39.44,-21.72,21.72,0.00,7.01,7.01,1392.23,TARP,TARP,198.60,304.51,258.84,45.68,6,1,0,Yes
 Zone Information, ZONE WAREHOUSE BULK B END_B - STORY TOP,0.0,34.86,-21.72,7.01,37.15,-1.50E-014,10.52,1,1,1,34.86,39.44,-21.72,21.72,7.01,14.02,7.01,1392.23,TARP,TARP,198.60,304.51,258.84,45.68,6,1,0,Yes
 Zone Information, ZONE WAREHOUSE BULK C  - STORY GROUND,0.0,13.76,21.72,0.00,24.31,24.00,3.51,1,1,1,13.76,34.86,21.72,26.29,0.00,7.01,7.01,676.57,TARP,TARP,96.51,147.98,125.78,22.20,6,1,0,Yes
 Zone Information, ZONE WAREHOUSE BULK C  - STORY TOP,0.0,-34.86,21.72,7.01,-8.46E-016,24.00,10.52,1,1,1,-34.86,34.86,21.72,26.29,7.01,14.02,7.01,2234.89,TARP,TARP,318.80,488.82,415.50,73.32,8,1,0,Yes
 Zone Information, ZONE WAREHOUSE BULK C END_A - STORY TOP,0.0,-39.44,21.72,7.01,-37.15,24.00,10.52,1,1,1,-39.44,-34.86,21.72,26.29,7.01,14.02,7.01,146.54,TARP,TARP,20.90,64.10,54.49,9.62,6,2,0,Yes
 Zone Information, ZONE WAREHOUSE BULK C END_B - STORY GROUND,0.0,34.86,21.72,0.00,37.15,24.00,3.51,1,1,1,34.86,39.44,21.72,26.29,0.00,7.01,7.01,146.54,TARP,TARP,20.90,64.10,54.49,9.62,6,2,0,Yes
 Zone Information, ZONE WAREHOUSE BULK C END_B - STORY TOP,0.0,34.86,21.72,7.01,37.15,24.00,10.52,1,1,1,34.86,39.44,21.72,26.29,7.01,14.02,7.01,146.54,TARP,TARP,20.90,64.10,54.49,9.62,6,2,0,Yes
 Zone Information, ZONE WAREHOUSE FINE A  - STORY GROUND,0.0,-34.86,-26.29,0.00,-14.42,-24.00,3.51,1,1,1,-34.86,6.03,-26.29,-21.72,0.00,7.01,7.01,1310.58,TARP,TARP,186.95,286.65,243.66,43.00,6,1,0,Yes
 Zone Information, ZONE WAREHOUSE FINE A END_A - STORY GROUND,0.0,-39.44,-26.29,0.00,-37.15,-24.00,3.51,1,1,1,-39.44,-34.86,-26.29,-21.72,0.00,7.01,7.01,146.54,TARP,TARP,20.90,64.10,54.49,9.62,6,2,0,Yes
 Zone Information, ZONE WAREHOUSE FINE B  - STORY GROUND,0.0,-34.86,-21.72,0.00,-14.42,-1.55E-014,3.51,1,1,1,-34.86,6.03,-21.72,21.72,0.00,7.01,7.01,12451.47,TARP,TARP,1776.14,0.00,0.00,0.00,6,0,0,Yes
 Zone Information, ZONE WAREHOUSE FINE B END_A - STORY GROUND,0.0,-39.44,-21.72,0.00,-37.15,-1.50E-014,3.51,1,1,1,-39.44,-34.86,-21.72,21.72,0.00,7.01,7.01,1392.23,TARP,TARP,198.60,304.51,258.84,45.68,6,1,0,Yes
 Zone Information, ZONE WAREHOUSE FINE C  - STORY GROUND,0.0,-34.86,21.72,0.00,-14.42,24.00,3.51,1,1,1,-34.86,6.03,21.72,26.29,0.00,7.01,7.01,1310.58,TARP,TARP,186.95,286.65,243.66,43.00,6,1,0,Yes
 Zone Information, ZONE WAREHOUSE FINE C END_A - STORY GROUND,0.0,-39.44,21.72,0.00,-37.15,24.00,3.51,1,1,1,-39.44,-34.86,21.72,26.29,0.00,7.01,7.01,146.54,TARP,TARP,20.90,64.10,54.49,9.62,6,2,0,Yes
 Zone Information, ZONE WAREHOUSE OFFICE A  - STORY GROUND,0.0,6.03,-26.29,0.00,9.89,-24.00,3.51,1,1,1,6.03,13.76,-26.29,-21.72,0.00,7.01,7.01,247.74,TARP,TARP,35.34,54.19,46.06,8.13,6,1,0,Yes
 Zone Information, ZONE WAREHOUSE OFFICE B  - STORY GROUND,0.0,6.03,-21.72,0.00,9.89,-1.63E-014,3.51,1,1,1,6.03,13.76,-21.72,21.72,0.00,7.01,7.01,2353.72,TARP,TARP,335.75,0.00,0.00,0.00,6,0,0,Yes
 Zone Information, ZONE WAREHOUSE OFFICE C  - STORY GROUND,0.0,6.03,21.72,0.00,9.89,24.00,3.51,1,1,1,6.03,13.76,21.72,26.29,0.00,7.01,7.01,247.74,TARP,TARP,35.34,54.19,46.06,8.13,6,1,0,Yes
! <Zone Internal Gains Nominal>,Zone Name, Floor Area {m2},# Occupants,Area per Occupant {m2/person},Occupant per Area {person/m2},Interior Lighting {W/m2},Electric Load {W/m2},Gas Load {W/m2},Other Load {W/m2},Hot Water Eq {W/m2},Steam Equipment {W/m2},Sum Loads per Area {W/m2},Outdoor Controlled Baseboard Heat
 Zone Internal Gains Nominal, ZONE WAREHOUSE BULK A  - STORY GROUND,96.51,0.0,N/A,0.000,8.611,15.560,0.000,0.000,0.000,0.000,24.171,No
 Zone Internal Gains Nominal, ZONE WAREHOUSE BULK A  - STORY TOP,318.80,0.0,N/A,0.000,8.611,15.560,0.000,0.000,0.000,0.000,24.171,No
 Zone Internal Gains Nominal, ZONE WAREHOUSE BULK A END_A - STORY TOP,20.90,0.0,N/A,0.000,8.611,15.560,0.000,0.000,0.000,0.000,24.171,No
 Zone Internal Gains Nominal, ZONE WAREHOUSE BULK A END_B - STORY GROUND,20.90,0.0,N/A,0.000,8.611,15.560,0.000,0.000,0.000,0.000,24.171,No
 Zone Internal Gains Nominal, ZONE WAREHOUSE BULK A END_B - STORY TOP,20.90,0.0,N/A,0.000,8.611,15.560,0.000,0.000,0.000,0.000,24.171,No
 Zone Internal Gains Nominal, ZONE WAREHOUSE BULK B  - STORY GROUND,916.91,0.0,N/A,0.000,8.611,15.560,0.000,0.000,0.000,0.000,24.171,No
 Zone Internal Gains Nominal, ZONE WAREHOUSE BULK B  - STORY TOP,3028.80,0.0,N/A,0.000,8.611,15.560,0.000,0.000,0.000,0.000,24.171,No
 Zone Internal Gains Nominal, ZONE WAREHOUSE BULK B END_A - STORY TOP,198.60,0.0,N/A,0.000,8.611,15.560,0.000,0.000,0.000,0.000,24.171,No
 Zone Internal Gains Nominal, ZONE WAREHOUSE BULK B END_B - STORY GROUND,198.60,0.0,N/A,0.000,8.611,15.560,0.000,0.000,0.000,0.000,24.171,No
 Zone Internal Gains Nominal, ZONE WAREHOUSE BULK B END_B - STORY TOP,198.60,0.0,N/A,0.000,8.611,15.560,0.000,0.000,0.000,0.000,24.171,No
 Zone Internal Gains Nominal, ZONE WAREHOUSE BULK C  - STORY GROUND,96.51,0.0,N/A,0.000,8.611,15.560,0.000,0.000,0.000,0.000,24.171,No
 Zone Internal Gains Nominal, ZONE WAREHOUSE BULK C  - STORY TOP,318.80,0.0,N/A,0.000,8.611,15.560,0.000,0.000,0.000,0.000,24.171,No
 Zone Internal Gains Nominal, ZONE WAREHOUSE BULK C END_A - STORY TOP,20.90,0.0,N/A,0.000,8.611,15.560,0.000,0.000,0.000,0.000,24.171,No
 Zone Internal Gains Nominal, ZONE WAREHOUSE BULK C END_B - STORY GROUND,20.90,0.0,N/A,0.000,8.611,15.560,0.000,0.000,0.000,0.000,24.171,No
 Zone Internal Gains Nominal, ZONE WAREHOUSE BULK C END_B - STORY TOP,20.90,0.0,N/A,0.000,8.611,15.560,0.000,0.000,0.000,0.000,24.171,No
 Zone Internal Gains Nominal, ZONE WAREHOUSE FINE A  - STORY GROUND,186.95,0.0,N/A,0.000,8.611,0.000,0.000,0.000,0.000,0.000,8.611,No
 Zone Internal Gains Nominal, ZONE WAREHOUSE FINE A END_A - STORY GROUND,20.90,0.0,N/A,0.000,8.611,0.000,0.000,0.000,0.000,0.000,8.611,No
 Zone Internal Gains Nominal, ZONE WAREHOUSE FINE B  - STORY GROUND,1776.14,0.0,N/A,0.000,8.611,0.000,0.000,0.000,0.000,0.000,8.611,No
 Zone Internal Gains Nominal, ZONE WAREHOUSE FINE B END_A - STORY GROUND,198.60,0.0,N/A,0.000,8.611,0.000,0.000,0.000,0.000,0.000,8.611,No
 Zone Internal Gains Nominal, ZONE WAREHOUSE FINE C  - STORY GROUND,186.95,0.0,N/A,0.000,8.611,0.000,0.000,0.000,0.000,0.000,8.611,No
 Zone Internal Gains Nominal, ZONE WAREHOUSE FINE C END_A - STORY GROUND,20.90,0.0,N/A,0.000,8.611,0.000,0.000,0.000,0.000,0.000,8.611,No
 Zone Internal Gains Nominal, ZONE WAREHOUSE OFFICE A  - STORY GROUND,35.34,0.7,47.400,2.110E-002,8.611,18.070,0.000,0.000,0.000,0.000,26.681,No
 Zone Internal Gains Nominal, ZONE WAREHOUSE OFFICE B  - STORY GROUND,335.75,7.1,47.400,2.110E-002,8.611,18.070,0.000,0.000,0.000,0.000,26.681,No
 Zone Internal Gains Nominal, ZONE WAREHOUSE OFFICE C  - STORY GROUND,35.34,0.7,47.400,2.110E-002,8.611,18.070,0.000,0.000,0.000,0.000,26.681,No
! <People Internal Gains Nominal>,Name,Schedule Name,Zone Name,Zone Floor Area {m2},# Zone Occupants,Number of People {},People/Floor Area {person/m2},Floor Area per person {m2/person},Fraction Radiant,Fraction Convected,Sensible Fraction Calculation,Activity level,ASHRAE 55 Warnings,Carbon Dioxide Generation Rate,Nominal Minimum Number of People,Nominal Maximum Number of People,MRT Calculation Type,Work Efficiency, Clothing Insulation Calculation Method,Clothing Insulation Calculation Method Schedule,Clothing,Air Velocity,Fanger Calculation,Pierce Calculation,KSU Calculation,Cooling Effect Calculation,Ankle Draft Calculation
 People Internal Gains Nominal, WAREHOUSE OFFICE A  - STORY GROUND WAREHOUSE OFFICE PEOPLE,WAREHOUSE BLDG OCC,ZONE WAREHOUSE OFFICE A  - STORY GROUND,35.34,0.7,0.7,2.110E-002,47.400,0.300,0.700,AutoCalculate,WAREHOUSE ACTIVITY,No,3.8200E-008,0,1,Zone Averaged,WORK EFFICIENCY SCHEDULE,Clothing Insulation Schedule,N/A,CLOTHING SCHEDULE,AIR VELOCITY SCHEDULE,Yes,No,No,No,No
 People Internal Gains Nominal, WAREHOUSE OFFICE B  - STORY GROUND WAREHOUSE OFFICE PEOPLE,WAREHOUSE BLDG OCC,ZONE WAREHOUSE OFFICE B  - STORY GROUND,335.75,7.1,7.1,2.110E-002,47.400,0.300,0.700,AutoCalculate,WAREHOUSE ACTIVITY,No,3.8200E-008,0,7,Zone Averaged,WORK EFFICIENCY SCHEDULE,Clothing Insulation Schedule,N/A,CLOTHING SCHEDULE,AIR VELOCITY SCHEDULE,Yes,No,No,No,No
 People Internal Gains Nominal, WAREHOUSE OFFICE C  - STORY GROUND WAREHOUSE OFFICE PEOPLE,WAREHOUSE BLDG OCC,ZONE WAREHOUSE OFFICE C  - STORY GROUND,35.34,0.7,0.7,2.110E-002,47.400,0.300,0.700,AutoCalculate,WAREHOUSE ACTIVITY,No,3.8200E-008,0,1,Zone Averaged,WORK EFFICIENCY SCHEDULE,Clothing Insulation Schedule,N/A,CLOTHING SCHEDULE,AIR VELOCITY SCHEDULE,Yes,No,No,No,No
! <Lights Internal Gains Nominal>,Name,Schedule Name,Zone Name,Zone Floor Area {m2},# Zone Occupants,Lighting Level {W},Lights/Floor Area {W/m2},Lights per person {W/person},Fraction Return Air,Fraction Radiant,Fraction Short Wave,Fraction Convected,Fraction Replaceable,End-Use Category,Nominal Minimum Lighting Level {W},Nominal Maximum Lighting Level {W}
 Lights Internal Gains Nominal, WAREHOUSE BULK A  - STORY TOP WAREHOUSE BULK LIGHTS,WAREHOUSE BLDG LIGHT,ZONE WAREHOUSE BULK A  - STORY TOP,318.80,0.0,2745.196,8.611,N/A,0.000,0.500,0.200,0.300,0.000,General,0.000,2745.196
 Lights Internal Gains Nominal, WAREHOUSE BULK A  - STORY GROUND WAREHOUSE BULK LIGHTS,WAREHOUSE BLDG LIGHT,ZONE WAREHOUSE BULK A  - STORY GROUND,96.51,0.0,831.052,8.611,N/A,0.000,0.500,0.200,0.300,0.000,General,0.000,831.052
 Lights Internal Gains Nominal, WAREHOUSE BULK B  - STORY GROUND WAREHOUSE BULK LIGHTS,WAREHOUSE BLDG LIGHT,ZONE WAREHOUSE BULK B  - STORY GROUND,916.91,0.0,7895.593,8.611,N/A,0.000,0.500,0.200,0.300,0.000,General,0.000,7895.593
 Lights Internal Gains Nominal, WAREHOUSE BULK B  - STORY TOP WAREHOUSE BULK LIGHTS,WAREHOUSE BLDG LIGHT,ZONE WAREHOUSE BULK B  - STORY TOP,3028.80,0.0,26081.348,8.611,N/A,0.000,0.500,0.200,0.300,0.000,General,0.000,26081.348
 Lights Internal Gains Nominal, WAREHOUSE BULK C END_A - STORY TOP WAREHOUSE BULK LIGHTS,WAREHOUSE BLDG LIGHT,ZONE WAREHOUSE BULK C END_A - STORY TOP,20.90,0.0,180.000,8.611,N/A,0.000,0.500,0.200,0.300,0.000,General,0.000,180.000
 Lights Internal Gains Nominal, WAREHOUSE BULK C  - STORY GROUND WAREHOUSE BULK LIGHTS,WAREHOUSE BLDG LIGHT,ZONE WAREHOUSE BULK C  - STORY GROUND,96.51,0.0,831.052,8.611,N/A,0.000,0.500,0.200,0.300,0.000,General,0.000,831.052
 Lights Internal Gains Nominal, WAREHOUSE BULK A END_B - STORY GROUND WAREHOUSE BULK LIGHTS,WAREHOUSE BLDG LIGHT,ZONE WAREHOUSE BULK A END_B - STORY GROUND,20.90,0.0,180.000,8.611,N/A,0.000,0.500,0.200,0.300,0.000,General,0.000,180.000
 Lights Internal Gains Nominal, WAREHOUSE BULK B END_B - STORY GROUND WAREHOUSE BULK LIGHTS,WAREHOUSE BLDG LIGHT,ZONE WAREHOUSE BULK B END_B - STORY GROUND,198.60,0.0,1710.130,8.611,N/A,0.000,0.500,0.200,0.300,0.000,General,0.000,1710.130
 Lights Internal Gains Nominal, WAREHOUSE BULK C END_B - STORY GROUND WAREHOUSE BULK LIGHTS,WAREHOUSE BLDG LIGHT,ZONE WAREHOUSE BULK C END_B - STORY GROUND,20.90,0.0,180.000,8.611,N/A,0.000,0.500,0.200,0.300,0.000,General,0.000,180.000
 Lights Internal Gains Nominal, WAREHOUSE BULK B END_A - STORY TOP WAREHOUSE BULK LIGHTS,WAREHOUSE BLDG LIGHT,ZONE WAREHOUSE BULK B END_A - STORY TOP,198.60,0.0,1710.130,8.611,N/A,0.000,0.500,0.200,0.300,0.000,General,0.000,1710.130
 Lights Internal Gains Nominal, WAREHOUSE BULK B END_B - STORY TOP WAREHOUSE BULK LIGHTS,WAREHOUSE BLDG LIGHT,ZONE WAREHOUSE BULK B END_B - STORY TOP,198.60,0.0,1710.130,8.611,N/A,0.000,0.500,0.200,0.300,0.000,General,0.000,1710.130
 Lights Internal Gains Nominal, WAREHOUSE BULK C  - STORY TOP WAREHOUSE BULK LIGHTS,WAREHOUSE BLDG LIGHT,ZONE WAREHOUSE BULK C  - STORY TOP,318.80,0.0,2745.196,8.611,N/A,0.000,0.500,0.200,0.300,0.000,General,0.000,2745.196
 Lights Internal Gains Nominal, WAREHOUSE BULK C END_B - STORY TOP WAREHOUSE BULK LIGHTS,WAREHOUSE BLDG LIGHT,ZONE WAREHOUSE BULK C END_B - STORY TOP,20.90,0.0,180.000,8.611,N/A,0.000,0.500,0.200,0.300,0.000,General,0.000,180.000
 Lights Internal Gains Nominal, WAREHOUSE BULK A END_A - STORY TOP WAREHOUSE BULK LIGHTS,WAREHOUSE BLDG LIGHT,ZONE WAREHOUSE BULK A END_A - STORY TOP,20.90,0.0,180.000,8.611,N/A,0.000,0.500,0.200,0.300,0.000,General,0.000,180.000
 Lights Internal Gains Nominal, WAREHOUSE BULK A END_B - STORY TOP WAREHOUSE BULK LIGHTS,WAREHOUSE BLDG LIGHT,ZONE WAREHOUSE BULK A END_B - STORY TOP,20.90,0.0,180.000,8.611,N/A,0.000,0.500,0.200,0.300,0.000,General,0.000,180.000
 Lights Internal Gains Nominal, WAREHOUSE FINE A END_A - STORY GROUND WAREHOUSE FINE LIGHTS,WAREHOUSE BLDG LIGHT,ZONE WAREHOUSE FINE A END_A - STORY GROUND,20.90,0.0,180.000,8.611,N/A,0.000,0.500,0.200,0.300,0.000,General,0.000,180.000
 Lights Internal Gains Nominal, WAREHOUSE FINE C  - STORY GROUND WAREHOUSE FINE LIGHTS,WAREHOUSE BLDG LIGHT,ZONE WAREHOUSE FINE C  - STORY GROUND,186.95,0.0,1609.835,8.611,N/A,0.000,0.500,0.200,0.300,0.000,General,0.000,1609.835
 Lights Internal Gains Nominal, WAREHOUSE FINE B  - STORY GROUND WAREHOUSE FINE LIGHTS,WAREHOUSE BLDG LIGHT,ZONE WAREHOUSE FINE B  - STORY GROUND,1776.14,0.0,15294.597,8.611,N/A,0.000,0.500,0.200,0.300,0.000,General,0.000,15294.597
 Lights Internal Gains Nominal, WAREHOUSE FINE C END_A - STORY GROUND WAREHOUSE FINE LIGHTS,WAREHOUSE BLDG LIGHT,ZONE WAREHOUSE FINE C END_A - STORY GROUND,20.90,0.0,180.000,8.611,N/A,0.000,0.500,0.200,0.300,0.000,General,0.000,180.000
 Lights Internal Gains Nominal, WAREHOUSE FINE B END_A - STORY GROUND WAREHOUSE FINE LIGHTS,WAREHOUSE BLDG LIGHT,ZONE WAREHOUSE FINE B END_A - STORY GROUND,198.60,0.0,1710.130,8.611,N/A,0.000,0.500,0.200,0.300,0.000,General,0.000,1710.130
 Lights Internal Gains Nominal, WAREHOUSE FINE A  - STORY GROUND WAREHOUSE FINE LIGHTS,WAREHOUSE BLDG LIGHT,ZONE WAREHOUSE FINE A  - STORY GROUND,186.95,0.0,1609.835,8.611,N/A,0.000,0.500,0.200,0.300,0.000,General,0.000,1609.835
 Lights Internal Gains Nominal, WAREHOUSE OFFICE A  - STORY GROUND WAREHOUSE OFFICE LIGHTS,WAREHOUSE BLDG LIGHT,ZONE WAREHOUSE OFFICE A  - STORY GROUND,35.34,0.7,304.309,8.611,408.163,0.000,0.500,0.200,0.300,0.000,General,0.000,304.309
 Lights Internal Gains Nominal, WAREHOUSE OFFICE B  - STORY GROUND WAREHOUSE OFFICE LIGHTS,WAREHOUSE BLDG LIGHT,ZONE WAREHOUSE OFFICE B  - STORY GROUND,335.75,7.1,2891.158,8.611,408.163,0.000,0.500,0.200,0.300,0.000,General,0.000,2891.158
 Lights Internal Gains Nominal, WAREHOUSE OFFICE C  - STORY GROUND WAREHOUSE OFFICE LIGHTS,WAREHOUSE BLDG LIGHT,ZONE WAREHOUSE OFFICE C  - STORY GROUND,35.34,0.7,304.309,8.611,408.163,0.000,0.500,0.200,0.300,0.000,General,0.000,304.309
! <ElectricEquipment Internal Gains Nominal>,Name,Schedule Name,Zone Name,Zone Floor Area {m2},# Zone Occupants,Equipment Level {W},Equipment/Floor Area {W/m2},Equipment per person {W/person},Fraction Latent,Fraction Radiant,Fraction Lost,Fraction Convected,End-Use SubCategory,Nominal Minimum Equipment Level {W},Nominal Maximum Equipment Level {W}
 ElectricEquipment Internal Gains Nominal, WAREHOUSE BULK A  - STORY TOP ELECTRIC EQUIPMENT 2,WAREHOUSE BLDG EQUIP,ZONE WAREHOUSE BULK A  - STORY TOP,318.80,0.0,4144.352,13.000,N/A,0.000,0.000,0.000,1.000,General,0.000,4144.352
 ElectricEquipment Internal Gains Nominal, WAREHOUSE BULK A  - STORY GROUND ELECTRIC EQUIPMENT 2,WAREHOUSE BLDG EQUIP,ZONE WAREHOUSE BULK A  - STORY GROUND,96.51,0.0,1254.617,13.000,N/A,0.000,0.000,0.000,1.000,General,0.000,1254.617
 ElectricEquipment Internal Gains Nominal, WAREHOUSE BULK B  - STORY GROUND ELECTRIC EQUIPMENT 2,WAREHOUSE BLDG EQUIP,ZONE WAREHOUSE BULK B  - STORY GROUND,916.91,0.0,11919.775,13.000,N/A,0.000,0.000,0.000,1.000,General,0.000,11919.775
 ElectricEquipment Internal Gains Nominal, WAREHOUSE BULK B  - STORY TOP ELECTRIC EQUIPMENT 2,WAREHOUSE BLDG EQUIP,ZONE WAREHOUSE BULK B  - STORY TOP,3028.80,0.0,39374.343,13.000,N/A,0.000,0.000,0.000,1.000,General,0.000,39374.343
 ElectricEquipment Internal Gains Nominal, WAREHOUSE BULK C END_A - STORY TOP ELECTRIC EQUIPMENT 2,WAREHOUSE BLDG EQUIP,ZONE WAREHOUSE BULK C END_A - STORY TOP,20.90,0.0,271.741,13.000,N/A,0.000,0.000,0.000,1.000,General,0.000,271.741
 ElectricEquipment Internal Gains Nominal, WAREHOUSE BULK C  - STORY GROUND ELECTRIC EQUIPMENT 2,WAREHOUSE BLDG EQUIP,ZONE WAREHOUSE BULK C  - STORY GROUND,96.51,0.0,1254.617,13.000,N/A,0.000,0.000,0.000,1.000,General,0.000,1254.617
 ElectricEquipment Internal Gains Nominal, WAREHOUSE BULK A END_B - STORY GROUND ELECTRIC EQUIPMENT 2,WAREHOUSE BLDG EQUIP,ZONE WAREHOUSE BULK A END_B - STORY GROUND,20.90,0.0,271.741,13.000,N/A,0.000,0.000,0.000,1.000,General,0.000,271.741
 ElectricEquipment Internal Gains Nominal, WAREHOUSE BULK B END_B - STORY GROUND ELECTRIC EQUIPMENT 2,WAREHOUSE BLDG EQUIP,ZONE WAREHOUSE BULK B END_B - STORY GROUND,198.60,0.0,2581.740,13.000,N/A,0.000,0.000,0.000,1.000,General,0.000,2581.740
 ElectricEquipment Internal Gains Nominal, WAREHOUSE BULK C END_B - STORY GROUND ELECTRIC EQUIPMENT 2,WAREHOUSE BLDG EQUIP,ZONE WAREHOUSE BULK C END_B - STORY GROUND,20.90,0.0,271.741,13.000,N/A,0.000,0.000,0.000,1.000,General,0.000,271.741
 ElectricEquipment Internal Gains Nominal, WAREHOUSE BULK B END_A - STORY TOP ELECTRIC EQUIPMENT 2,WAREHOUSE BLDG EQUIP,ZONE WAREHOUSE BULK B END_A - STORY TOP,198.60,0.0,2581.740,13.000,N/A,0.000,0.000,0.000,1.000,General,0.000,2581.740
 ElectricEquipment Internal Gains Nominal, WAREHOUSE BULK B END_B - STORY TOP ELECTRIC EQUIPMENT 2,WAREHOUSE BLDG EQUIP,ZONE WAREHOUSE BULK B END_B - STORY TOP,198.60,0.0,2581.740,13.000,N/A,0.000,0.000,0.000,1.000,General,0.000,2581.740
 ElectricEquipment Internal Gains Nominal, WAREHOUSE BULK C  - STORY TOP ELECTRIC EQUIPMENT 2,WAREHOUSE BLDG EQUIP,ZONE WAREHOUSE BULK C  - STORY TOP,318.80,0.0,4144.352,13.000,N/A,0.000,0.000,0.000,1.000,General,0.000,4144.352
 ElectricEquipment Internal Gains Nominal, WAREHOUSE BULK C END_B - STORY TOP ELECTRIC EQUIPMENT 2,WAREHOUSE BLDG EQUIP,ZONE WAREHOUSE BULK C END_B - STORY TOP,20.90,0.0,271.741,13.000,N/A,0.000,0.000,0.000,1.000,General,0.000,271.741
 ElectricEquipment Internal Gains Nominal, WAREHOUSE BULK A END_A - STORY TOP ELECTRIC EQUIPMENT 2,WAREHOUSE BLDG EQUIP,ZONE WAREHOUSE BULK A END_A - STORY TOP,20.90,0.0,271.741,13.000,N/A,0.000,0.000,0.000,1.000,General,0.000,271.741
 ElectricEquipment Internal Gains Nominal, WAREHOUSE BULK A END_B - STORY TOP ELECTRIC EQUIPMENT 2,WAREHOUSE BLDG EQUIP,ZONE WAREHOUSE BULK A END_B - STORY TOP,20.90,0.0,271.741,13.000,N/A,0.000,0.000,0.000,1.000,General,0.000,271.741
 ElectricEquipment Internal Gains Nominal, WAREHOUSE BULK A  - STORY TOP WAREHOUSE BULK ELEC EQUIP,WAREHOUSE BLDG EQUIP,ZONE WAREHOUSE BULK A  - STORY TOP,318.80,0.0,816.119,2.560,N/A,0.000,0.500,0.000,0.500,General,0.000,816.119
 ElectricEquipment Internal Gains Nominal, WAREHOUSE BULK A  - STORY GROUND WAREHOUSE BULK ELEC EQUIP,WAREHOUSE BLDG EQUIP,ZONE WAREHOUSE BULK A  - STORY GROUND,96.51,0.0,247.063,2.560,N/A,0.000,0.500,0.000,0.500,General,0.000,247.063
 ElectricEquipment Internal Gains Nominal, WAREHOUSE BULK B  - STORY GROUND WAREHOUSE BULK ELEC EQUIP,WAREHOUSE BLDG EQUIP,ZONE WAREHOUSE BULK B  - STORY GROUND,916.91,0.0,2347.279,2.560,N/A,0.000,0.500,0.000,0.500,General,0.000,2347.279
 ElectricEquipment Internal Gains Nominal, WAREHOUSE BULK B  - STORY TOP WAREHOUSE BULK ELEC EQUIP,WAREHOUSE BLDG EQUIP,ZONE WAREHOUSE BULK B  - STORY TOP,3028.80,0.0,7753.717,2.560,N/A,0.000,0.500,0.000,0.500,General,0.000,7753.717
 ElectricEquipment Internal Gains Nominal, WAREHOUSE BULK C END_A - STORY TOP WAREHOUSE BULK ELEC EQUIP,WAREHOUSE BLDG EQUIP,ZONE WAREHOUSE BULK C END_A - STORY TOP,20.90,0.0,53.512,2.560,N/A,0.000,0.500,0.000,0.500,General,0.000,53.512
 ElectricEquipment Internal Gains Nominal, WAREHOUSE BULK C  - STORY GROUND WAREHOUSE BULK ELEC EQUIP,WAREHOUSE BLDG EQUIP,ZONE WAREHOUSE BULK C  - STORY GROUND,96.51,0.0,247.063,2.560,N/A,0.000,0.500,0.000,0.500,General,0.000,247.063
 ElectricEquipment Internal Gains Nominal, WAREHOUSE BULK A END_B - STORY GROUND WAREHOUSE BULK ELEC EQUIP,WAREHOUSE BLDG EQUIP,ZONE WAREHOUSE BULK A END_B - STORY GROUND,20.90,0.0,53.512,2.560,N/A,0.000,0.500,0.000,0.500,General,0.000,53.512
 ElectricEquipment Internal Gains Nominal, WAREHOUSE BULK B END_B - STORY GROUND WAREHOUSE BULK ELEC EQUIP,WAREHOUSE BLDG EQUIP,ZONE WAREHOUSE BULK B END_B - STORY GROUND,198.60,0.0,508.404,2.560,N/A,0.000,0.500,0.000,0.500,General,0.000,508.404
 ElectricEquipment Internal Gains Nominal, WAREHOUSE BULK C END_B - STORY GROUND WAREHOUSE BULK ELEC EQUIP,WAREHOUSE BLDG EQUIP,ZONE WAREHOUSE BULK C END_B - STORY GROUND,20.90,0.0,53.512,2.560,N/A,0.000,0.500,0.000,0.500,General,0.000,53.512
 ElectricEquipment Internal Gains Nominal, WAREHOUSE BULK B END_A - STORY TOP WAREHOUSE BULK ELEC EQUIP,WAREHOUSE BLDG EQUIP,ZONE WAREHOUSE BULK B END_A - STORY TOP,198.60,0.0,508.404,2.560,N/A,0.000,0.500,0.000,0.500,General,0.000,508.404
 ElectricEquipment Internal Gains Nominal, WAREHOUSE BULK B END_B - STORY TOP WAREHOUSE BULK ELEC EQUIP,WAREHOUSE BLDG EQUIP,ZONE WAREHOUSE BULK B END_B - STORY TOP,198.60,0.0,508.404,2.560,N/A,0.000,0.500,0.000,0.500,General,0.000,508.404
 ElectricEquipment Internal Gains Nominal, WAREHOUSE BULK C  - STORY TOP WAREHOUSE BULK ELEC EQUIP,WAREHOUSE BLDG EQUIP,ZONE WAREHOUSE BULK C  - STORY TOP,318.80,0.0,816.119,2.560,N/A,0.000,0.500,0.000,0.500,General,0.000,816.119
 ElectricEquipment Internal Gains Nominal, WAREHOUSE BULK C END_B - STORY TOP WAREHOUSE BULK ELEC EQUIP,WAREHOUSE BLDG EQUIP,ZONE WAREHOUSE BULK C END_B - STORY TOP,20.90,0.0,53.512,2.560,N/A,0.000,0.500,0.000,0.500,General,0.000,53.512
 ElectricEquipment Internal Gains Nominal, WAREHOUSE BULK A END_A - STORY TOP WAREHOUSE BULK ELEC EQUIP,WAREHOUSE BLDG EQUIP,ZONE WAREHOUSE BULK A END_A - STORY TOP,20.90,0.0,53.512,2.560,N/A,0.000,0.500,0.000,0.500,General,0.000,53.512
 ElectricEquipment Internal Gains Nominal, WAREHOUSE BULK A END_B - STORY TOP WAREHOUSE BULK ELEC EQUIP,WAREHOUSE BLDG EQUIP,ZONE WAREHOUSE BULK A END_B - STORY TOP,20.90,0.0,53.512,2.560,N/A,0.000,0.500,0.000,0.500,General,0.000,53.512
 ElectricEquipment Internal Gains Nominal, WAREHOUSE OFFICE A  - STORY GROUND ELECTRIC EQUIPMENT 1,WAREHOUSE BLDG EQUIP,ZONE WAREHOUSE OFFICE A  - STORY GROUND,35.34,0.7,353.391,10.000,473.995,0.000,0.000,0.000,1.000,General,0.000,353.391
 ElectricEquipment Internal Gains Nominal, WAREHOUSE OFFICE B  - STORY GROUND ELECTRIC EQUIPMENT 1,WAREHOUSE BLDG EQUIP,ZONE WAREHOUSE OFFICE B  - STORY GROUND,335.75,7.1,3357.467,10.000,473.995,0.000,0.000,0.000,1.000,General,0.000,3357.467
 ElectricEquipment Internal Gains Nominal, WAREHOUSE OFFICE C  - STORY GROUND ELECTRIC EQUIPMENT 1,WAREHOUSE BLDG EQUIP,ZONE WAREHOUSE OFFICE C  - STORY GROUND,35.34,0.7,353.391,10.000,473.995,0.000,0.000,0.000,1.000,General,0.000,353.391
 ElectricEquipment Internal Gains Nominal, WAREHOUSE OFFICE A  - STORY GROUND WAREHOUSE OFFICE ELEC EQUIP,WAREHOUSE BLDG EQUIP,ZONE WAREHOUSE OFFICE A  - STORY GROUND,35.34,0.7,285.186,8.070,382.514,0.000,0.500,0.000,0.500,General,0.000,285.186
 ElectricEquipment Internal Gains Nominal, WAREHOUSE OFFICE B  - STORY GROUND WAREHOUSE OFFICE ELEC EQUIP,WAREHOUSE BLDG EQUIP,ZONE WAREHOUSE OFFICE B  - STORY GROUND,335.75,7.1,2709.475,8.070,382.514,0.000,0.500,0.000,0.500,General,0.000,2709.475
 ElectricEquipment Internal Gains Nominal, WAREHOUSE OFFICE C  - STORY GROUND WAREHOUSE OFFICE ELEC EQUIP,WAREHOUSE BLDG EQUIP,ZONE WAREHOUSE OFFICE C  - STORY GROUND,35.34,0.7,285.186,8.070,382.514,0.000,0.500,0.000,0.500,General,0.000,285.186
! <Shadowing/Sun Position Calculations Annual Simulations>, Shading Calculation Method, Shading Calculation Update Frequency Method, Shading Calculation Update Frequency {days}, Maximum Figures in Shadow Overlap Calculations {}, Polygon Clipping Algorithm, Pixel Counting Resolution, Sky Diffuse Modeling Algorithm, Output External Shading Calculation Results, Disable Self-Shading Within Shading Zone Groups, Disable Self-Shading From Shading Zone Groups to Other Zones
Shadowing/Sun Position Calculations Annual Simulations,PolygonClipping,Periodic,30,15000,SutherlandHodgman,512,SimpleSkyDiffuseModeling,No,No,No
! <Water Heater Information>,Type,Name,Volume {m3},Maximum Capacity {W},Standard Rated Recovery Efficiency, Standard Rated Energy Factor
! <ZoneInfiltration Airflow Stats Nominal>,Name,Schedule Name,Zone Name, Zone Floor Area {m2}, # Zone Occupants,Design Volume Flow Rate {m3/s},Volume Flow Rate/Floor Area {m3/s-m2},Volume Flow Rate/Exterior Surface Area {m3/s-m2},ACH - Air Changes per Hour,Equation A - Constant Term Coefficient {},Equation B - Temperature Term Coefficient {1/C},Equation C - Velocity Term Coefficient {s/m}, Equation D - Velocity Squared Term Coefficient {s2/m2}
 ZoneInfiltration Airflow Stats Nominal, WAREHOUSE BULK A  - STORY GROUND INFILTRATION,ALWAYS ON DISCRETE,ZONE WAREHOUSE BULK A  - STORY GROUND,96.51,0.0,0.152,1.572E-003,1.025E-003,0.807,1.000,0.000,0.000,0.000
 ZoneInfiltration Airflow Stats Nominal, WAREHOUSE BULK A  - STORY TOP INFILTRATION,ALWAYS ON DISCRETE,ZONE WAREHOUSE BULK A  - STORY TOP,318.80,0.0,0.501,1.572E-003,6.205E-004,0.807,1.000,0.000,0.000,0.000
 ZoneInfiltration Airflow Stats Nominal, WAREHOUSE BULK A END_A - STORY TOP INFILTRATION,ALWAYS ON DISCRETE,ZONE WAREHOUSE BULK A END_A - STORY TOP,20.90,0.0,6.572E-002,3.144E-003,7.731E-004,1.615,1.000,0.000,0.000,0.000
 ZoneInfiltration Airflow Stats Nominal, WAREHOUSE BULK A END_B - STORY GROUND INFILTRATION,ALWAYS ON DISCRETE,ZONE WAREHOUSE BULK A END_B - STORY GROUND,20.90,0.0,6.572E-002,3.144E-003,1.025E-003,1.615,1.000,0.000,0.000,0.000
 ZoneInfiltration Airflow Stats Nominal, WAREHOUSE BULK A END_B - STORY TOP INFILTRATION,ALWAYS ON DISCRETE,ZONE WAREHOUSE BULK A END_B - STORY TOP,20.90,0.0,6.572E-002,3.144E-003,7.731E-004,1.615,1.000,0.000,0.000,0.000
 ZoneInfiltration Airflow Stats Nominal, WAREHOUSE BULK B END_A - STORY TOP INFILTRATION,ALWAYS ON DISCRETE,ZONE WAREHOUSE BULK B END_A - STORY TOP,198.60,0.0,0.312,1.572E-003,6.205E-004,0.807,1.000,0.000,0.000,0.000
 ZoneInfiltration Airflow Stats Nominal, WAREHOUSE BULK B END_B - STORY GROUND INFILTRATION,ALWAYS ON DISCRETE,ZONE WAREHOUSE BULK B END_B - STORY GROUND,198.60,0.0,0.312,1.572E-003,1.025E-003,0.807,1.000,0.000,0.000,0.000
 ZoneInfiltration Airflow Stats Nominal, WAREHOUSE BULK B END_B - STORY TOP INFILTRATION,ALWAYS ON DISCRETE,ZONE WAREHOUSE BULK B END_B - STORY TOP,198.60,0.0,0.312,1.572E-003,6.205E-004,0.807,1.000,0.000,0.000,0.000
 ZoneInfiltration Airflow Stats Nominal, WAREHOUSE BULK C  - STORY GROUND INFILTRATION,ALWAYS ON DISCRETE,ZONE WAREHOUSE BULK C  - STORY GROUND,96.51,0.0,0.152,1.572E-003,1.025E-003,0.807,1.000,0.000,0.000,0.000
 ZoneInfiltration Airflow Stats Nominal, WAREHOUSE BULK C  - STORY TOP INFILTRATION,ALWAYS ON DISCRETE,ZONE WAREHOUSE BULK C  - STORY TOP,318.80,0.0,0.501,1.572E-003,6.205E-004,0.807,1.000,0.000,0.000,0.000
 ZoneInfiltration Airflow Stats Nominal, WAREHOUSE BULK C END_A - STORY TOP INFILTRATION,ALWAYS ON DISCRETE,ZONE WAREHOUSE BULK C END_A - STORY TOP,20.90,0.0,6.572E-002,3.144E-003,7.731E-004,1.615,1.000,0.000,0.000,0.000
 ZoneInfiltration Airflow Stats Nominal, WAREHOUSE BULK C END_B - STORY GROUND INFILTRATION,ALWAYS ON DISCRETE,ZONE WAREHOUSE BULK C END_B - STORY GROUND,20.90,0.0,6.572E-002,3.144E-003,1.025E-003,1.615,1.000,0.000,0.000,0.000
 ZoneInfiltration Airflow Stats Nominal, WAREHOUSE BULK C END_B - STORY TOP INFILTRATION,ALWAYS ON DISCRETE,ZONE WAREHOUSE BULK C END_B - STORY TOP,20.90,0.0,6.572E-002,3.144E-003,7.731E-004,1.615,1.000,0.000,0.000,0.000
 ZoneInfiltration Airflow Stats Nominal, WAREHOUSE FINE A  - STORY GROUND INFILTRATION,ALWAYS ON DISCRETE,ZONE WAREHOUSE FINE A  - STORY GROUND,186.95,0.0,0.294,1.572E-003,1.025E-003,0.807,1.000,0.000,0.000,0.000
 ZoneInfiltration Airflow Stats Nominal, WAREHOUSE FINE A END_A - STORY GROUND INFILTRATION,ALWAYS ON DISCRETE,ZONE WAREHOUSE FINE A END_A - STORY GROUND,20.90,0.0,6.572E-002,3.144E-003,1.025E-003,1.615,1.000,0.000,0.000,0.000
 ZoneInfiltration Airflow Stats Nominal, WAREHOUSE FINE B END_A - STORY GROUND INFILTRATION,ALWAYS ON DISCRETE,ZONE WAREHOUSE FINE B END_A - STORY GROUND,198.60,0.0,0.312,1.572E-003,1.025E-003,0.807,1.000,0.000,0.000,0.000
 ZoneInfiltration Airflow Stats Nominal, WAREHOUSE FINE C  - STORY GROUND INFILTRATION,ALWAYS ON DISCRETE,ZONE WAREHOUSE FINE C  - STORY GROUND,186.95,0.0,0.294,1.572E-003,1.025E-003,0.807,1.000,0.000,0.000,0.000
 ZoneInfiltration Airflow Stats Nominal, WAREHOUSE FINE C END_A - STORY GROUND INFILTRATION,ALWAYS ON DISCRETE,ZONE WAREHOUSE FINE C END_A - STORY GROUND,20.90,0.0,6.572E-002,3.144E-003,1.025E-003,1.615,1.000,0.000,0.000,0.000
 ZoneInfiltration Airflow Stats Nominal, WAREHOUSE OFFICE A  - STORY GROUND INFILTRATION,ALWAYS ON DISCRETE,ZONE WAREHOUSE OFFICE A  - STORY GROUND,35.34,0.7,5.555E-002,1.572E-003,1.025E-003,0.807,1.000,0.000,0.000,0.000
 ZoneInfiltration Airflow Stats Nominal, WAREHOUSE OFFICE C  - STORY GROUND INFILTRATION,ALWAYS ON DISCRETE,ZONE WAREHOUSE OFFICE C  - STORY GROUND,35.34,0.7,5.555E-002,1.572E-003,1.025E-003,0.807,1.000,0.000,0.000,0.000
! <AirFlow Model>, Simple
 AirFlow Model, Simple
! <RoomAir Model>, Zone Name, Mixing/Mundt/UCSDDV/UCSDCV/UCSDUFI/UCSDUFE/User Defined
RoomAir Model,ZONE WAREHOUSE BULK A  - STORY GROUND,Mixing/Well-Stirred
RoomAir Model,ZONE WAREHOUSE BULK A  - STORY TOP,Mixing/Well-Stirred
RoomAir Model,ZONE WAREHOUSE BULK A END_A - STORY TOP,Mixing/Well-Stirred
RoomAir Model,ZONE WAREHOUSE BULK A END_B - STORY GROUND,Mixing/Well-Stirred
RoomAir Model,ZONE WAREHOUSE BULK A END_B - STORY TOP,Mixing/Well-Stirred
RoomAir Model,ZONE WAREHOUSE BULK B  - STORY GROUND,Mixing/Well-Stirred
RoomAir Model,ZONE WAREHOUSE BULK B  - STORY TOP,Mixing/Well-Stirred
RoomAir Model,ZONE WAREHOUSE BULK B END_A - STORY TOP,Mixing/Well-Stirred
RoomAir Model,ZONE WAREHOUSE BULK B END_B - STORY GROUND,Mixing/Well-Stirred
RoomAir Model,ZONE WAREHOUSE BULK B END_B - STORY TOP,Mixing/Well-Stirred
RoomAir Model,ZONE WAREHOUSE BULK C  - STORY GROUND,Mixing/Well-Stirred
RoomAir Model,ZONE WAREHOUSE BULK C  - STORY TOP,Mixing/Well-Stirred
RoomAir Model,ZONE WAREHOUSE BULK C END_A - STORY TOP,Mixing/Well-Stirred
RoomAir Model,ZONE WAREHOUSE BULK C END_B - STORY GROUND,Mixing/Well-Stirred
RoomAir Model,ZONE WAREHOUSE BULK C END_B - STORY TOP,Mixing/Well-Stirred
RoomAir Model,ZONE WAREHOUSE FINE A  - STORY GROUND,Mixing/Well-Stirred
RoomAir Model,ZONE WAREHOUSE FINE A END_A - STORY GROUND,Mixing/Well-Stirred
RoomAir Model,ZONE WAREHOUSE FINE B  - STORY GROUND,Mixing/Well-Stirred
RoomAir Model,ZONE WAREHOUSE FINE B END_A - STORY GROUND,Mixing/Well-Stirred
RoomAir Model,ZONE WAREHOUSE FINE C  - STORY GROUND,Mixing/Well-Stirred
RoomAir Model,ZONE WAREHOUSE FINE C END_A - STORY GROUND,Mixing/Well-Stirred
RoomAir Model,ZONE WAREHOUSE OFFICE A  - STORY GROUND,Mixing/Well-Stirred
RoomAir Model,ZONE WAREHOUSE OFFICE B  - STORY GROUND,Mixing/Well-Stirred
RoomAir Model,ZONE WAREHOUSE OFFICE C  - STORY GROUND,Mixing/Well-Stirred
! <AirflowNetwork Model:Control>, No Multizone or Distribution/Multizone with Distribution/Multizone without Distribution/Multizone with Distribution only during Fan Operation
AirflowNetwork Model:Control,NoMultizoneOrDistribution
! <Zone Volume Capacitance Multiplier>, Sensible Heat Capacity Multiplier, Moisture Capacity Multiplier, Carbon Dioxide Capacity Multiplier, Generic Contaminant Capacity Multiplier
Zone Volume Capacitance Multiplier,   1.000 ,   1.000,   1.000,   1.000
! <Load Timesteps in Zone Design Calculation Averaging Window>, Value
 Load Timesteps in Zone Design Calculation Averaging Window,    1
! <Heating Sizing Factor Information>, Sizing Factor ID, Value
 Heating Sizing Factor Information, Global,   1.2500    
 Heating Sizing Factor Information, Zone ZONE WAREHOUSE BULK A  - STORY GROUND,   1.2500    
 Heating Sizing Factor Information, Zone ZONE WAREHOUSE BULK A  - STORY TOP,   1.2500    
 Heating Sizing Factor Information, Zone ZONE WAREHOUSE BULK A END_A - STORY TOP,   1.2500    
 Heating Sizing Factor Information, Zone ZONE WAREHOUSE BULK A END_B - STORY GROUND,   1.2500    
 Heating Sizing Factor Information, Zone ZONE WAREHOUSE BULK A END_B - STORY TOP,   1.2500    
 Heating Sizing Factor Information, Zone ZONE WAREHOUSE BULK B  - STORY GROUND,   1.2500    
 Heating Sizing Factor Information, Zone ZONE WAREHOUSE BULK B  - STORY TOP,   1.2500    
 Heating Sizing Factor Information, Zone ZONE WAREHOUSE BULK B END_A - STORY TOP,   1.2500    
 Heating Sizing Factor Information, Zone ZONE WAREHOUSE BULK B END_B - STORY GROUND,   1.2500    
 Heating Sizing Factor Information, Zone ZONE WAREHOUSE BULK B END_B - STORY TOP,   1.2500    
 Heating Sizing Factor Information, Zone ZONE WAREHOUSE BULK C  - STORY GROUND,   1.2500    
 Heating Sizing Factor Information, Zone ZONE WAREHOUSE BULK C  - STORY TOP,   1.2500    
 Heating Sizing Factor Information, Zone ZONE WAREHOUSE BULK C END_A - STORY TOP,   1.2500    
 Heating Sizing Factor Information, Zone ZONE WAREHOUSE BULK C END_B - STORY GROUND,   1.2500    
 Heating Sizing Factor Information, Zone ZONE WAREHOUSE BULK C END_B - STORY TOP,   1.2500    
 Heating Sizing Factor Information, Zone ZONE WAREHOUSE FINE A  - STORY GROUND,   1.2500    
 Heating Sizing Factor Information, Zone ZONE WAREHOUSE FINE A END_A - STORY GROUND,   1.2500    
 Heating Sizing Factor Information, Zone ZONE WAREHOUSE FINE B  - STORY GROUND,   1.2500    
 Heating Sizing Factor Information, Zone ZONE WAREHOUSE FINE B END_A - STORY GROUND,   1.2500    
 Heating Sizing Factor Information, Zone ZONE WAREHOUSE FINE C  - STORY GROUND,   1.2500    
 Heating Sizing Factor Information, Zone ZONE WAREHOUSE FINE C END_A - STORY GROUND,   1.2500    
 Heating Sizing Factor Information, Zone ZONE WAREHOUSE OFFICE A  - STORY GROUND,   1.2500    
 Heating Sizing Factor Information, Zone ZONE WAREHOUSE OFFICE B  - STORY GROUND,   1.2500    
 Heating Sizing Factor Information, Zone ZONE WAREHOUSE OFFICE C  - STORY GROUND,   1.2500    
! <Cooling Sizing Factor Information>, Sizing Factor ID, Value
 Cooling Sizing Factor Information, Global,   1.1500    
 Cooling Sizing Factor Information, Zone ZONE WAREHOUSE BULK A  - STORY GROUND,   1.1500    
 Cooling Sizing Factor Information, Zone ZONE WAREHOUSE BULK A  - STORY TOP,   1.1500    
 Cooling Sizing Factor Information, Zone ZONE WAREHOUSE BULK A END_A - STORY TOP,   1.1500    
 Cooling Sizing Factor Information, Zone ZONE WAREHOUSE BULK A END_B - STORY GROUND,   1.1500    
 Cooling Sizing Factor Information, Zone ZONE WAREHOUSE BULK A END_B - STORY TOP,   1.1500    
 Cooling Sizing Factor Information, Zone ZONE WAREHOUSE BULK B  - STORY GROUND,   1.1500    
 Cooling Sizing Factor Information, Zone ZONE WAREHOUSE BULK B  - STORY TOP,   1.1500    
 Cooling Sizing Factor Information, Zone ZONE WAREHOUSE BULK B END_A - STORY TOP,   1.1500    
 Cooling Sizing Factor Information, Zone ZONE WAREHOUSE BULK B END_B - STORY GROUND,   1.1500    
 Cooling Sizing Factor Information, Zone ZONE WAREHOUSE BULK B END_B - STORY TOP,   1.1500    
 Cooling Sizing Factor Information, Zone ZONE WAREHOUSE BULK C  - STORY GROUND,   1.1500    
 Cooling Sizing Factor Information, Zone ZONE WAREHOUSE BULK C  - STORY TOP,   1.1500    
 Cooling Sizing Factor Information, Zone ZONE WAREHOUSE BULK C END_A - STORY TOP,   1.1500    
 Cooling Sizing Factor Information, Zone ZONE WAREHOUSE BULK C END_B - STORY GROUND,   1.1500    
 Cooling Sizing Factor Information, Zone ZONE WAREHOUSE BULK C END_B - STORY TOP,   1.1500    
 Cooling Sizing Factor Information, Zone ZONE WAREHOUSE FINE A  - STORY GROUND,   1.1500    
 Cooling Sizing Factor Information, Zone ZONE WAREHOUSE FINE A END_A - STORY GROUND,   1.1500    
 Cooling Sizing Factor Information, Zone ZONE WAREHOUSE FINE B  - STORY GROUND,   1.1500    
 Cooling Sizing Factor Information, Zone ZONE WAREHOUSE FINE B END_A - STORY GROUND,   1.1500    
 Cooling Sizing Factor Information, Zone ZONE WAREHOUSE FINE C  - STORY GROUND,   1.1500    
 Cooling Sizing Factor Information, Zone ZONE WAREHOUSE FINE C END_A - STORY GROUND,   1.1500    
 Cooling Sizing Factor Information, Zone ZONE WAREHOUSE OFFICE A  - STORY GROUND,   1.1500    
 Cooling Sizing Factor Information, Zone ZONE WAREHOUSE OFFICE B  - STORY GROUND,   1.1500    
 Cooling Sizing Factor Information, Zone ZONE WAREHOUSE OFFICE C  - STORY GROUND,   1.1500    
! <Zone Sizing Information>, Zone Name, Load Type, Calc Des Load {W}, User Des Load {W}, Calc Des Air Flow Rate {m3/s}, User Des Air Flow Rate {m3/s}, Design Day Name, Date/Time of Peak, Temperature at Peak {C}, Humidity Ratio at Peak {kgWater/kgDryAir}, Floor Area {m2}, # Occupants, Calc Outdoor Air Flow Rate {m3/s}, Calc DOAS Heat Addition Rate {W}
 Zone Sizing Information, ZONE WAREHOUSE BULK A  - STORY GROUND, Cooling, 0.00000, 0.00000, 0.00000, 2.45133E-002, KODIAK JULY .4% CONDNS DB=>MCWB, 7/21 17:00:00, 23.43000, 8.28374E-003, 96.50904, 0.00000, 2.45133E-002, 0.00000
 Zone Sizing Information, ZONE WAREHOUSE BULK A  - STORY GROUND, Heating, 3602.06803, 4502.58504, 8.94788E-002, 0.11185, KODIAK ANN HTG 99.6% CONDNS DB, 1/21 07:00:00, -12.80000, 1.24844E-003, 96.50904, 0.00000, 2.45133E-002, 0.00000
 Zone Sizing Information, ZONE WAREHOUSE BULK A  - STORY TOP, Cooling, 0.00000, 0.00000, 0.00000, 8.09743E-002, KODIAK JULY .4% CONDNS DB=>MCWB, 7/21 16:00:00, 23.87000, 8.28442E-003, 318.79628, 0.00000, 8.09743E-002, 0.00000
 Zone Sizing Information, ZONE WAREHOUSE BULK A  - STORY TOP, Heating, 12638.01565, 15797.51956, 0.31394, 0.39243, KODIAK ANN HTG 99.6% CONDNS DB, 1/21 08:00:00, -12.80000, 1.24844E-003, 318.79628, 0.00000, 8.09743E-002, 0.00000
 Zone Sizing Information, ZONE WAREHOUSE BULK A END_A - STORY TOP, Cooling, 0.00000, 0.00000, 0.00000, 5.30941E-003, KODIAK JULY .4% CONDNS DB=>MCWB, 7/21 17:00:00, 23.43000, 8.28374E-003, 20.90318, 0.00000, 5.30941E-003, 0.00000
 Zone Sizing Information, ZONE WAREHOUSE BULK A END_A - STORY TOP, Heating, 2146.21537, 2682.76921, 5.33141E-002, 6.66426E-002, KODIAK ANN HTG 99.6% CONDNS DB, 1/21 08:00:00, -12.80000, 1.24844E-003, 20.90318, 0.00000, 5.30941E-003, 0.00000
 Zone Sizing Information, ZONE WAREHOUSE BULK A END_B - STORY GROUND, Cooling, 0.00000, 0.00000, 0.00000, 5.30941E-003, KODIAK JULY .4% CONDNS DB=>MCWB, 7/21 16:00:00, 23.87000, 8.28442E-003, 20.90318, 0.00000, 5.30941E-003, 0.00000
 Zone Sizing Information, ZONE WAREHOUSE BULK A END_B - STORY GROUND, Heating, 2327.25455, 2909.06819, 5.78112E-002, 7.22641E-002, KODIAK ANN HTG 99.6% CONDNS DB, 1/21 08:00:00, -12.80000, 1.24844E-003, 20.90318, 0.00000, 5.30941E-003, 0.00000
 Zone Sizing Information, ZONE WAREHOUSE BULK A END_B - STORY TOP, Cooling, 0.00000, 0.00000, 0.00000, 5.30941E-003, KODIAK JULY .4% CONDNS DB=>MCWB, 7/21 16:00:00, 23.87000, 8.28442E-003, 20.90318, 0.00000, 5.30941E-003, 0.00000
 Zone Sizing Information, ZONE WAREHOUSE BULK A END_B - STORY TOP, Heating, 2353.10972, 2941.38715, 5.84535E-002, 7.30669E-002, KODIAK ANN HTG 99.6% CONDNS DB, 1/21 08:00:00, -12.80000, 1.24844E-003, 20.90318, 0.00000, 5.30941E-003, 0.00000
 Zone Sizing Information, ZONE WAREHOUSE BULK B  - STORY GROUND, Cooling, 0.00000, 0.00000, 0.00000, 0.23289, KODIAK JULY .4% CONDNS DB=>MCWB, 7/21 17:00:00, 23.43000, 8.28374E-003, 916.90578, 0.00000, 0.23289, 0.00000
 Zone Sizing Information, ZONE WAREHOUSE BULK B  - STORY GROUND, Heating, 0.00000, 0.00000, 0.00000, 0.23289, KODIAK ANN HTG 99.6% CONDNS DB, 1/21 08:00:00, -12.80000, 1.24844E-003, 916.90578, 0.00000, 0.23289, 0.00000
 Zone Sizing Information, ZONE WAREHOUSE BULK B  - STORY TOP, Cooling, 0.00000, 0.00000, 0.00000, 0.76931, KODIAK JULY .4% CONDNS DB=>MCWB, 7/21 17:00:00, 23.43000, 8.28374E-003, 3028.79563, 0.00000, 0.76931, 0.00000
 Zone Sizing Information, ZONE WAREHOUSE BULK B  - STORY TOP, Heating, 0.00000, 0.00000, 0.00000, 0.76931, KODIAK ANN HTG 99.6% CONDNS DB, 1/21 08:00:00, -12.80000, 1.24844E-003, 3028.79563, 0.00000, 0.76931, 0.00000
 Zone Sizing Information, ZONE WAREHOUSE BULK B END_A - STORY TOP, Cooling, 0.00000, 0.00000, 0.00000, 5.04432E-002, KODIAK JULY .4% CONDNS DB=>MCWB, 7/21 19:00:00, 22.05500, 8.28162E-003, 198.59539, 0.00000, 5.04432E-002, 0.00000
 Zone Sizing Information, ZONE WAREHOUSE BULK B END_A - STORY TOP, Heating, 7518.49279, 9398.11599, 0.18677, 0.23346, KODIAK ANN HTG 99.6% CONDNS DB, 1/21 08:00:00, -12.80000, 1.24844E-003, 198.59539, 0.00000, 5.04432E-002, 0.00000
 Zone Sizing Information, ZONE WAREHOUSE BULK B END_B - STORY GROUND, Cooling, 0.00000, 0.00000, 0.00000, 5.04432E-002, KODIAK JULY .4% CONDNS DB=>MCWB, 7/21 12:00:00, 23.48500, 8.28382E-003, 198.59539, 0.00000, 5.04432E-002, 0.00000
 Zone Sizing Information, ZONE WAREHOUSE BULK B END_B - STORY GROUND, Heating, 8095.78830, 10119.73538, 0.20111, 0.25138, KODIAK ANN HTG 99.6% CONDNS DB, 1/21 08:00:00, -12.80000, 1.24844E-003, 198.59539, 0.00000, 5.04432E-002, 0.00000
 Zone Sizing Information, ZONE WAREHOUSE BULK B END_B - STORY TOP, Cooling, 0.00000, 0.00000, 0.00000, 5.04432E-002, KODIAK JULY .4% CONDNS DB=>MCWB, 7/21 12:00:00, 23.48500, 8.28382E-003, 198.59539, 0.00000, 5.04432E-002, 0.00000
 Zone Sizing Information, ZONE WAREHOUSE BULK B END_B - STORY TOP, Heating, 9059.96733, 11324.95916, 0.22506, 0.28132, KODIAK ANN HTG 99.6% CONDNS DB, 1/21 08:00:00, -12.80000, 1.24844E-003, 198.59539, 0.00000, 5.04432E-002, 0.00000
 Zone Sizing Information, ZONE WAREHOUSE BULK C  - STORY GROUND, Cooling, 0.00000, 0.00000, 0.00000, 2.45133E-002, KODIAK JULY .4% CONDNS DB=>MCWB, 7/21 17:00:00, 23.43000, 8.28374E-003, 96.50904, 0.00000, 2.45133E-002, 0.00000
 Zone Sizing Information, ZONE WAREHOUSE BULK C  - STORY GROUND, Heating, 3614.35580, 4517.94475, 8.97841E-002, 0.11223, KODIAK ANN HTG 99.6% CONDNS DB, 1/21 07:00:00, -12.80000, 1.24844E-003, 96.50904, 0.00000, 2.45133E-002, 0.00000
 Zone Sizing Information, ZONE WAREHOUSE BULK C  - STORY TOP, Cooling, 0.00000, 0.00000, 0.00000, 8.09743E-002, KODIAK JULY .4% CONDNS DB=>MCWB, 7/21 17:00:00, 23.43000, 8.28374E-003, 318.79628, 0.00000, 8.09743E-002, 0.00000
 Zone Sizing Information, ZONE WAREHOUSE BULK C  - STORY TOP, Heating, 12688.90930, 15861.13662, 0.31520, 0.39401, KODIAK ANN HTG 99.6% CONDNS DB, 1/21 08:00:00, -12.80000, 1.24844E-003, 318.79628, 0.00000, 8.09743E-002, 0.00000
 Zone Sizing Information, ZONE WAREHOUSE BULK C END_A - STORY TOP, Cooling, 0.00000, 0.00000, 0.00000, 5.30941E-003, KODIAK JULY .4% CONDNS DB=>MCWB, 7/21 19:00:00, 22.05500, 8.28162E-003, 20.90318, 0.00000, 5.30941E-003, 0.00000
 Zone Sizing Information, ZONE WAREHOUSE BULK C END_A - STORY TOP, Heating, 2150.46996, 2688.08745, 5.34197E-002, 6.67747E-002, KODIAK ANN HTG 99.6% CONDNS DB, 1/21 08:00:00, -12.80000, 1.24844E-003, 20.90318, 0.00000, 5.30941E-003, 0.00000
 Zone Sizing Information, ZONE WAREHOUSE BULK C END_B - STORY GROUND, Cooling, 0.00000, 0.00000, 0.00000, 5.30941E-003, KODIAK JULY .4% CONDNS DB=>MCWB, 7/21 12:00:00, 23.48500, 8.28382E-003, 20.90318, 0.00000, 5.30941E-003, 0.00000
 Zone Sizing Information, ZONE WAREHOUSE BULK C END_B - STORY GROUND, Heating, 2330.34385, 2912.92981, 5.78880E-002, 7.23600E-002, KODIAK ANN HTG 99.6% CONDNS DB, 1/21 08:00:00, -12.80000, 1.24844E-003, 20.90318, 0.00000, 5.30941E-003, 0.00000
 Zone Sizing Information, ZONE WAREHOUSE BULK C END_B - STORY TOP, Cooling, 0.00000, 0.00000, 0.00000, 5.30941E-003, KODIAK JULY .4% CONDNS DB=>MCWB, 7/21 12:00:00, 23.48500, 8.28382E-003, 20.90318, 0.00000, 5.30941E-003, 0.00000
 Zone Sizing Information, ZONE WAREHOUSE BULK C END_B - STORY TOP, Heating, 2357.10780, 2946.38475, 5.85528E-002, 7.31910E-002, KODIAK ANN HTG 99.6% CONDNS DB, 1/21 08:00:00, -12.80000, 1.24844E-003, 20.90318, 0.00000, 5.30941E-003, 0.00000
 Zone Sizing Information, ZONE WAREHOUSE FINE A  - STORY GROUND, Cooling, 8926.45021, 10265.41775, 0.52194, 0.60023, KODIAK AUGUST .4% CONDNS DB=>MCWB, 8/21 15:00:00, 22.60000, 8.70767E-003, 186.94818, 0.00000, 4.74848E-002, 0.00000
 Zone Sizing Information, ZONE WAREHOUSE FINE A  - STORY GROUND, Heating, 18215.82072, 22769.77590, 0.43078, 0.53847, KODIAK ANN HTG 99.6% CONDNS DB, 1/21 07:00:00, -12.80000, 1.24844E-003, 186.94818, 0.00000, 4.74848E-002, 0.00000
 Zone Sizing Information, ZONE WAREHOUSE FINE A END_A - STORY GROUND, Cooling, 1243.23925, 1429.72514, 7.26917E-002, 8.35955E-002, KODIAK JULY .4% CONDNS DB=>MCWB, 7/21 17:00:00, 23.43000, 8.28374E-003, 20.90318, 0.00000, 5.30941E-003, 0.00000
 Zone Sizing Information, ZONE WAREHOUSE FINE A END_A - STORY GROUND, Heating, 3960.19347, 4950.24184, 9.36307E-002, 0.11704, KODIAK ANN HTG 99.6% CONDNS DB, 1/21 07:00:00, -12.80000, 1.24844E-003, 20.90318, 0.00000, 5.30941E-003, 0.00000
 Zone Sizing Information, ZONE WAREHOUSE FINE B  - STORY GROUND, Cooling, 51424.98559, 59138.73343, 3.00685, 3.45788, KODIAK JULY .4% CONDNS DB=>MCWB, 7/21 21:00:00, 20.95500, 8.27993E-003, 1776.14318, 0.00000, 0.45114, 0.00000
 Zone Sizing Information, ZONE WAREHOUSE FINE B  - STORY GROUND, Heating, 10808.27737, 13510.34671, 0.25570, 0.45114, KODIAK ANN HTG 99.6% CONDNS DB, 1/21 09:00:00, -12.80000, 1.24844E-003, 1776.14318, 0.00000, 0.45114, 0.00000
 Zone Sizing Information, ZONE WAREHOUSE FINE B END_A - STORY GROUND, Cooling, 10211.03819, 11742.69392, 0.59704, 0.68659, KODIAK JULY .4% CONDNS DB=>MCWB, 7/21 20:00:00, 21.45000, 8.28069E-003, 198.59539, 0.00000, 5.04432E-002, 0.00000
 Zone Sizing Information, ZONE WAREHOUSE FINE B END_A - STORY GROUND, Heating, 19451.91455, 24314.89318, 0.46004, 0.57505, KODIAK ANN HTG 99.6% CONDNS DB, 1/21 08:00:00, -12.80000, 1.24844E-003, 198.59539, 0.00000, 5.04432E-002, 0.00000
 Zone Sizing Information, ZONE WAREHOUSE FINE C  - STORY GROUND, Cooling, 3041.90561, 3498.19145, 0.17786, 0.20454, KODIAK JULY .4% CONDNS DB=>MCWB, 7/21 15:00:00, 24.20000, 8.28493E-003, 186.94818, 0.00000, 4.74848E-002, 0.00000
 Zone Sizing Information, ZONE WAREHOUSE FINE C  - STORY GROUND, Heating, 18258.29865, 22822.87331, 0.43178, 0.53973, KODIAK ANN HTG 99.6% CONDNS DB, 1/21 07:00:00, -12.80000, 1.24844E-003, 186.94818, 0.00000, 4.74848E-002, 0.00000
 Zone Sizing Information, ZONE WAREHOUSE FINE C END_A - STORY GROUND, Cooling, 773.08224, 889.04458, 4.52020E-002, 5.19823E-002, KODIAK JULY .4% CONDNS DB=>MCWB, 7/21 20:00:00, 21.45000, 8.28069E-003, 20.90318, 0.00000, 5.30941E-003, 0.00000
 Zone Sizing Information, ZONE WAREHOUSE FINE C END_A - STORY GROUND, Heating, 3966.66429, 4958.33037, 9.37837E-002, 0.11723, KODIAK ANN HTG 99.6% CONDNS DB, 1/21 07:00:00, -12.80000, 1.24844E-003, 20.90318, 0.00000, 5.30941E-003, 0.00000
 Zone Sizing Information, ZONE WAREHOUSE OFFICE A  - STORY GROUND, Cooling, 4371.01279, 5026.66471, 0.31708, 0.36464, KODIAK AUGUST .4% CONDNS DB=>MCWB, 8/21 15:00:00, 22.60000, 8.70767E-003, 35.33906, 0.74556, 7.03728E-003, 0.00000
 Zone Sizing Information, ZONE WAREHOUSE OFFICE A  - STORY GROUND, Heating, 6667.48079, 8334.35098, 0.18558, 0.23197, KODIAK ANN HTG 99.6% CONDNS DB, 1/21 09:00:00, -12.80000, 1.24844E-003, 35.33906, 0.74556, 7.03728E-003, 0.00000
 Zone Sizing Information, ZONE WAREHOUSE OFFICE B  - STORY GROUND, Cooling, 34929.88285, 40169.36527, 2.52883, 2.90815, KODIAK JULY .4% CONDNS DB=>MCWB, 7/21 08:00:00, 20.13000, 8.27867E-003, 335.74667, 7.08334, 6.68592E-002, 0.00000
 Zone Sizing Information, ZONE WAREHOUSE OFFICE B  - STORY GROUND, Heating, 14561.38153, 18201.72691, 0.40469, 0.50586, KODIAK ANN HTG 99.6% CONDNS DB, 1/21 09:00:00, -12.80000, 1.24844E-003, 335.74667, 7.08334, 6.68592E-002, 0.00000
 Zone Sizing Information, ZONE WAREHOUSE OFFICE C  - STORY GROUND, Cooling, 3024.04973, 3477.65719, 0.21914, 0.25201, KODIAK JULY .4% CONDNS DB=>MCWB, 7/21 08:00:00, 20.13000, 8.27867E-003, 35.33906, 0.74556, 7.03728E-003, 0.00000
 Zone Sizing Information, ZONE WAREHOUSE OFFICE C  - STORY GROUND, Heating, 6680.11800, 8350.14750, 0.18593, 0.23241, KODIAK ANN HTG 99.6% CONDNS DB, 1/21 09:00:00, -12.80000, 1.24844E-003, 35.33906, 0.74556, 7.03728E-003, 0.00000
! <System Sizing Information>, System Name, Load Type, Peak Load Kind, User Design Capacity, Calc Des Air Flow Rate [m3/s], User Des Air Flow Rate [m3/s], Design Day Name, Date/Time of Peak
 System Sizing Information, ZONE WAREHOUSE FINE A  - STORY GROUND PSZ-AC, Cooling, Sensible, 9871.23, 0.60023, 0.60023, KODIAK AUGUST .4% CONDNS DB=>MCWB, 8/21 05:00:00
 System Sizing Information, ZONE WAREHOUSE FINE A  - STORY GROUND PSZ-AC, Heating, Sensible, 24066.03, 0.53847, 0.53847, KODIAK ANN HTG 99.6% CONDNS DB, 1/21 07:00:00
 System Sizing Information, ZONE WAREHOUSE FINE A END_A - STORY GROUND PSZ-AC, Cooling, Sensible, 1386.62, 8.35955E-002, 8.35955E-002, KODIAK JULY .4% CONDNS DB=>MCWB, 7/21 05:00:00
 System Sizing Information, ZONE WAREHOUSE FINE A END_A - STORY GROUND PSZ-AC, Heating, Sensible, 5060.11, 0.11704, 0.11704, KODIAK ANN HTG 99.6% CONDNS DB, 1/21 07:00:00
 System Sizing Information, ZONE WAREHOUSE FINE B  - STORY GROUND PSZ-AC, Cooling, Sensible, 55089.62, 3.45788, 3.45788, KODIAK JULY .4% CONDNS DB=>MCWB, 7/21 05:00:00
 System Sizing Information, ZONE WAREHOUSE FINE B  - STORY GROUND PSZ-AC, Heating, Sensible, 34265.47, 0.45114, 0.45114, KODIAK ANN HTG 99.6% CONDNS DB, 1/21 01:00:00
 System Sizing Information, ZONE WAREHOUSE FINE B END_A - STORY GROUND PSZ-AC, Cooling, Sensible, 11240.81, 0.68659, 0.68659, KODIAK JULY .4% CONDNS DB=>MCWB, 7/21 05:00:00
 System Sizing Information, ZONE WAREHOUSE FINE B END_A - STORY GROUND PSZ-AC, Heating, Sensible, 25690.22, 0.57505, 0.57505, KODIAK ANN HTG 99.6% CONDNS DB, 1/21 08:00:00
 System Sizing Information, ZONE WAREHOUSE FINE C  - STORY GROUND PSZ-AC, Cooling, Sensible, 3300.52, 0.20454, 0.20454, KODIAK JULY .4% CONDNS DB=>MCWB, 7/21 05:00:00
 System Sizing Information, ZONE WAREHOUSE FINE C  - STORY GROUND PSZ-AC, Heating, Sensible, 24118.36, 0.53973, 0.53973, KODIAK ANN HTG 99.6% CONDNS DB, 1/21 07:00:00
 System Sizing Information, ZONE WAREHOUSE FINE C END_A - STORY GROUND PSZ-AC, Cooling, Sensible, 841.58, 5.19823E-002, 5.19823E-002, KODIAK JULY .4% CONDNS DB=>MCWB, 7/21 05:00:00
 System Sizing Information, ZONE WAREHOUSE FINE C END_A - STORY GROUND PSZ-AC, Heating, Sensible, 5068.08, 0.11724, 0.11724, KODIAK ANN HTG 99.6% CONDNS DB, 1/21 07:00:00
 System Sizing Information, ZONE WAREHOUSE OFFICE A  - STORY GROUND PSZ-AC, Cooling, Sensible, 4937.02, 0.36464, 0.36464, KODIAK AUGUST .4% CONDNS DB=>MCWB, 8/21 05:00:00
 System Sizing Information, ZONE WAREHOUSE OFFICE A  - STORY GROUND PSZ-AC, Heating, Sensible, 8493.43, 0.23197, 0.23197, KODIAK ANN HTG 99.6% CONDNS DB, 1/21 09:00:00
 System Sizing Information, ZONE WAREHOUSE OFFICE B  - STORY GROUND PSZ-AC, Cooling, Sensible, 39226.78, 2.90815, 2.90815, KODIAK JULY .4% CONDNS DB=>MCWB, 7/21 05:00:00
 System Sizing Information, ZONE WAREHOUSE OFFICE B  - STORY GROUND PSZ-AC, Heating, Sensible, 20591.26, 0.50586, 0.50586, KODIAK ANN HTG 99.6% CONDNS DB, 1/21 09:00:00
 System Sizing Information, ZONE WAREHOUSE OFFICE C  - STORY GROUND PSZ-AC, Cooling, Sensible, 3390.56, 0.25201, 0.25201, KODIAK JULY .4% CONDNS DB=>MCWB, 7/21 05:00:00
 System Sizing Information, ZONE WAREHOUSE OFFICE C  - STORY GROUND PSZ-AC, Heating, Sensible, 8509.00, 0.23241, 0.23241, KODIAK ANN HTG 99.6% CONDNS DB, 1/21 09:00:00
! <Component Sizing Information>, Component Type, Component Name, Input Field Description, Value
 Component Sizing Information, ZONEHVAC:BASEBOARD:CONVECTIVE:ELECTRIC, ZONE WAREHOUSE BULK A  - STORY GROUND ELECTRIC BASEBOARD, Design Size Heating Design Capacity [W], 4502.58504
 Component Sizing Information, ZONEHVAC:BASEBOARD:CONVECTIVE:ELECTRIC, ZONE WAREHOUSE BULK A  - STORY TOP ELECTRIC BASEBOARD, Design Size Heating Design Capacity [W], 15797.51956
 Component Sizing Information, ZONEHVAC:BASEBOARD:CONVECTIVE:ELECTRIC, ZONE WAREHOUSE BULK A END_A - STORY TOP ELECTRIC BASEBOARD, Design Size Heating Design Capacity [W], 2682.76921
 Component Sizing Information, ZONEHVAC:BASEBOARD:CONVECTIVE:ELECTRIC, ZONE WAREHOUSE BULK A END_B - STORY GROUND ELECTRIC BASEBOARD, Design Size Heating Design Capacity [W], 2909.06819
 Component Sizing Information, ZONEHVAC:BASEBOARD:CONVECTIVE:ELECTRIC, ZONE WAREHOUSE BULK A END_B - STORY TOP ELECTRIC BASEBOARD, Design Size Heating Design Capacity [W], 2941.38715
 Component Sizing Information, ZONEHVAC:BASEBOARD:CONVECTIVE:ELECTRIC, ZONE WAREHOUSE BULK B  - STORY GROUND ELECTRIC BASEBOARD, Design Size Heating Design Capacity [W], 0.00000
 Component Sizing Information, ZONEHVAC:BASEBOARD:CONVECTIVE:ELECTRIC, ZONE WAREHOUSE BULK B  - STORY TOP ELECTRIC BASEBOARD, Design Size Heating Design Capacity [W], 0.00000
 Component Sizing Information, ZONEHVAC:BASEBOARD:CONVECTIVE:ELECTRIC, ZONE WAREHOUSE BULK B END_A - STORY TOP ELECTRIC BASEBOARD, Design Size Heating Design Capacity [W], 9398.11599
 Component Sizing Information, ZONEHVAC:BASEBOARD:CONVECTIVE:ELECTRIC, ZONE WAREHOUSE BULK B END_B - STORY GROUND ELECTRIC BASEBOARD, Design Size Heating Design Capacity [W], 10119.73538
 Component Sizing Information, ZONEHVAC:BASEBOARD:CONVECTIVE:ELECTRIC, ZONE WAREHOUSE BULK B END_B - STORY TOP ELECTRIC BASEBOARD, Design Size Heating Design Capacity [W], 11324.95916
 Component Sizing Information, ZONEHVAC:BASEBOARD:CONVECTIVE:ELECTRIC, ZONE WAREHOUSE BULK C  - STORY GROUND ELECTRIC BASEBOARD, Design Size Heating Design Capacity [W], 4517.94475
 Component Sizing Information, ZONEHVAC:BASEBOARD:CONVECTIVE:ELECTRIC, ZONE WAREHOUSE BULK C  - STORY TOP ELECTRIC BASEBOARD, Design Size Heating Design Capacity [W], 15861.13662
 Component Sizing Information, ZONEHVAC:BASEBOARD:CONVECTIVE:ELECTRIC, ZONE WAREHOUSE BULK C END_A - STORY TOP ELECTRIC BASEBOARD, Design Size Heating Design Capacity [W], 2688.08745
 Component Sizing Information, ZONEHVAC:BASEBOARD:CONVECTIVE:ELECTRIC, ZONE WAREHOUSE BULK C END_B - STORY GROUND ELECTRIC BASEBOARD, Design Size Heating Design Capacity [W], 2912.92981
 Component Sizing Information, ZONEHVAC:BASEBOARD:CONVECTIVE:ELECTRIC, ZONE WAREHOUSE BULK C END_B - STORY TOP ELECTRIC BASEBOARD, Design Size Heating Design Capacity [W], 2946.38475
 Component Sizing Information, AirTerminal:SingleDuct:ConstantVolume:NoReheat, ZONE WAREHOUSE FINE A  - STORY GROUND PSZ-AC DIFFUSER, Design Size Maximum Air Flow Rate [m3/s], 0.60023
 Component Sizing Information, AirTerminal:SingleDuct:ConstantVolume:NoReheat, ZONE WAREHOUSE FINE A END_A - STORY GROUND PSZ-AC DIFFUSER, Design Size Maximum Air Flow Rate [m3/s], 0.11704
 Component Sizing Information, AirTerminal:SingleDuct:ConstantVolume:NoReheat, ZONE WAREHOUSE FINE B  - STORY GROUND PSZ-AC DIFFUSER, Design Size Maximum Air Flow Rate [m3/s], 3.45788
 Component Sizing Information, AirTerminal:SingleDuct:ConstantVolume:NoReheat, ZONE WAREHOUSE FINE B END_A - STORY GROUND PSZ-AC DIFFUSER, Design Size Maximum Air Flow Rate [m3/s], 0.68659
 Component Sizing Information, AirTerminal:SingleDuct:ConstantVolume:NoReheat, ZONE WAREHOUSE FINE C  - STORY GROUND PSZ-AC DIFFUSER, Design Size Maximum Air Flow Rate [m3/s], 0.53973
 Component Sizing Information, AirTerminal:SingleDuct:ConstantVolume:NoReheat, ZONE WAREHOUSE FINE C END_A - STORY GROUND PSZ-AC DIFFUSER, Design Size Maximum Air Flow Rate [m3/s], 0.11723
 Component Sizing Information, AirTerminal:SingleDuct:ConstantVolume:NoReheat, ZONE WAREHOUSE OFFICE A  - STORY GROUND PSZ-AC DIFFUSER, Design Size Maximum Air Flow Rate [m3/s], 0.36464
 Component Sizing Information, AirTerminal:SingleDuct:ConstantVolume:NoReheat, ZONE WAREHOUSE OFFICE B  - STORY GROUND PSZ-AC DIFFUSER, Design Size Maximum Air Flow Rate [m3/s], 2.90815
 Component Sizing Information, AirTerminal:SingleDuct:ConstantVolume:NoReheat, ZONE WAREHOUSE OFFICE C  - STORY GROUND PSZ-AC DIFFUSER, Design Size Maximum Air Flow Rate [m3/s], 0.25201
 Component Sizing Information, AirLoopHVAC, ZONE WAREHOUSE FINE A  - STORY GROUND PSZ-AC, Sum of Air Terminal Maximum Heating Flow Rates [m3/s], 0.60023
 Component Sizing Information, AirLoopHVAC, ZONE WAREHOUSE FINE A  - STORY GROUND PSZ-AC, Sum of Air Terminal Minimum Heating Flow Rates [m3/s], 0.60023
 Component Sizing Information, AirLoopHVAC, ZONE WAREHOUSE FINE A  - STORY GROUND PSZ-AC, Sum of Air Terminal Maximum Flow Rates [m3/s], 0.60023
 Component Sizing Information, AirLoopHVAC, ZONE WAREHOUSE FINE A  - STORY GROUND PSZ-AC, Adjusted Heating Design Air Flow Rate [m3/s], 0.60023
 Component Sizing Information, AirLoopHVAC, ZONE WAREHOUSE FINE A  - STORY GROUND PSZ-AC, Adjusted Cooling Design Air Flow Rate [m3/s], 0.60023
 Component Sizing Information, AirLoopHVAC, ZONE WAREHOUSE FINE A  - STORY GROUND PSZ-AC, Adjusted Main Design Air Flow Rate [m3/s], 0.60023
 Component Sizing Information, AirLoopHVAC, ZONE WAREHOUSE FINE A  - STORY GROUND PSZ-AC, User Heating Air Flow Ratio [], 1.00000
 Component Sizing Information, AirLoopHVAC, ZONE WAREHOUSE FINE A  - STORY GROUND PSZ-AC, Calculated Heating Air Flow Ratio [], 1.00000
 Component Sizing Information, AirLoopHVAC, ZONE WAREHOUSE FINE A END_A - STORY GROUND PSZ-AC, Sum of Air Terminal Maximum Heating Flow Rates [m3/s], 0.11704
 Component Sizing Information, AirLoopHVAC, ZONE WAREHOUSE FINE A END_A - STORY GROUND PSZ-AC, Sum of Air Terminal Minimum Heating Flow Rates [m3/s], 0.11704
 Component Sizing Information, AirLoopHVAC, ZONE WAREHOUSE FINE A END_A - STORY GROUND PSZ-AC, Sum of Air Terminal Maximum Flow Rates [m3/s], 0.11704
 Component Sizing Information, AirLoopHVAC, ZONE WAREHOUSE FINE A END_A - STORY GROUND PSZ-AC, Adjusted Heating Design Air Flow Rate [m3/s], 0.11704
 Component Sizing Information, AirLoopHVAC, ZONE WAREHOUSE FINE A END_A - STORY GROUND PSZ-AC, Adjusted Cooling Design Air Flow Rate [m3/s], 0.11704
 Component Sizing Information, AirLoopHVAC, ZONE WAREHOUSE FINE A END_A - STORY GROUND PSZ-AC, Adjusted Main Design Air Flow Rate [m3/s], 0.11704
 Component Sizing Information, AirLoopHVAC, ZONE WAREHOUSE FINE A END_A - STORY GROUND PSZ-AC, User Heating Air Flow Ratio [], 1.00000
 Component Sizing Information, AirLoopHVAC, ZONE WAREHOUSE FINE A END_A - STORY GROUND PSZ-AC, Calculated Heating Air Flow Ratio [], 1.00000
 Component Sizing Information, AirLoopHVAC, ZONE WAREHOUSE FINE B  - STORY GROUND PSZ-AC, Sum of Air Terminal Maximum Heating Flow Rates [m3/s], 3.45788
 Component Sizing Information, AirLoopHVAC, ZONE WAREHOUSE FINE B  - STORY GROUND PSZ-AC, Sum of Air Terminal Minimum Heating Flow Rates [m3/s], 3.45788
 Component Sizing Information, AirLoopHVAC, ZONE WAREHOUSE FINE B  - STORY GROUND PSZ-AC, Sum of Air Terminal Maximum Flow Rates [m3/s], 3.45788
 Component Sizing Information, AirLoopHVAC, ZONE WAREHOUSE FINE B  - STORY GROUND PSZ-AC, Adjusted Heating Design Air Flow Rate [m3/s], 3.45788
 Component Sizing Information, AirLoopHVAC, ZONE WAREHOUSE FINE B  - STORY GROUND PSZ-AC, Adjusted Cooling Design Air Flow Rate [m3/s], 3.45788
 Component Sizing Information, AirLoopHVAC, ZONE WAREHOUSE FINE B  - STORY GROUND PSZ-AC, Adjusted Main Design Air Flow Rate [m3/s], 3.45788
 Component Sizing Information, AirLoopHVAC, ZONE WAREHOUSE FINE B  - STORY GROUND PSZ-AC, User Heating Air Flow Ratio [], 1.00000
 Component Sizing Information, AirLoopHVAC, ZONE WAREHOUSE FINE B  - STORY GROUND PSZ-AC, Calculated Heating Air Flow Ratio [], 1.00000
 Component Sizing Information, AirLoopHVAC, ZONE WAREHOUSE FINE B END_A - STORY GROUND PSZ-AC, Sum of Air Terminal Maximum Heating Flow Rates [m3/s], 0.68659
 Component Sizing Information, AirLoopHVAC, ZONE WAREHOUSE FINE B END_A - STORY GROUND PSZ-AC, Sum of Air Terminal Minimum Heating Flow Rates [m3/s], 0.68659
 Component Sizing Information, AirLoopHVAC, ZONE WAREHOUSE FINE B END_A - STORY GROUND PSZ-AC, Sum of Air Terminal Maximum Flow Rates [m3/s], 0.68659
 Component Sizing Information, AirLoopHVAC, ZONE WAREHOUSE FINE B END_A - STORY GROUND PSZ-AC, Adjusted Heating Design Air Flow Rate [m3/s], 0.68659
 Component Sizing Information, AirLoopHVAC, ZONE WAREHOUSE FINE B END_A - STORY GROUND PSZ-AC, Adjusted Cooling Design Air Flow Rate [m3/s], 0.68659
 Component Sizing Information, AirLoopHVAC, ZONE WAREHOUSE FINE B END_A - STORY GROUND PSZ-AC, Adjusted Main Design Air Flow Rate [m3/s], 0.68659
 Component Sizing Information, AirLoopHVAC, ZONE WAREHOUSE FINE B END_A - STORY GROUND PSZ-AC, User Heating Air Flow Ratio [], 1.00000
 Component Sizing Information, AirLoopHVAC, ZONE WAREHOUSE FINE B END_A - STORY GROUND PSZ-AC, Calculated Heating Air Flow Ratio [], 1.00000
 Component Sizing Information, AirLoopHVAC, ZONE WAREHOUSE FINE C  - STORY GROUND PSZ-AC, Sum of Air Terminal Maximum Heating Flow Rates [m3/s], 0.53973
 Component Sizing Information, AirLoopHVAC, ZONE WAREHOUSE FINE C  - STORY GROUND PSZ-AC, Sum of Air Terminal Minimum Heating Flow Rates [m3/s], 0.53973
 Component Sizing Information, AirLoopHVAC, ZONE WAREHOUSE FINE C  - STORY GROUND PSZ-AC, Sum of Air Terminal Maximum Flow Rates [m3/s], 0.53973
 Component Sizing Information, AirLoopHVAC, ZONE WAREHOUSE FINE C  - STORY GROUND PSZ-AC, Adjusted Heating Design Air Flow Rate [m3/s], 0.53973
 Component Sizing Information, AirLoopHVAC, ZONE WAREHOUSE FINE C  - STORY GROUND PSZ-AC, Adjusted Cooling Design Air Flow Rate [m3/s], 0.53973
 Component Sizing Information, AirLoopHVAC, ZONE WAREHOUSE FINE C  - STORY GROUND PSZ-AC, Adjusted Main Design Air Flow Rate [m3/s], 0.53973
 Component Sizing Information, AirLoopHVAC, ZONE WAREHOUSE FINE C  - STORY GROUND PSZ-AC, User Heating Air Flow Ratio [], 1.00000
 Component Sizing Information, AirLoopHVAC, ZONE WAREHOUSE FINE C  - STORY GROUND PSZ-AC, Calculated Heating Air Flow Ratio [], 1.00000
 Component Sizing Information, AirLoopHVAC, ZONE WAREHOUSE FINE C END_A - STORY GROUND PSZ-AC, Sum of Air Terminal Maximum Heating Flow Rates [m3/s], 0.11723
 Component Sizing Information, AirLoopHVAC, ZONE WAREHOUSE FINE C END_A - STORY GROUND PSZ-AC, Sum of Air Terminal Minimum Heating Flow Rates [m3/s], 0.11723
 Component Sizing Information, AirLoopHVAC, ZONE WAREHOUSE FINE C END_A - STORY GROUND PSZ-AC, Sum of Air Terminal Maximum Flow Rates [m3/s], 0.11723
 Component Sizing Information, AirLoopHVAC, ZONE WAREHOUSE FINE C END_A - STORY GROUND PSZ-AC, Adjusted Heating Design Air Flow Rate [m3/s], 0.11724
 Component Sizing Information, AirLoopHVAC, ZONE WAREHOUSE FINE C END_A - STORY GROUND PSZ-AC, Adjusted Cooling Design Air Flow Rate [m3/s], 0.11723
 Component Sizing Information, AirLoopHVAC, ZONE WAREHOUSE FINE C END_A - STORY GROUND PSZ-AC, Adjusted Main Design Air Flow Rate [m3/s], 0.11724
 Component Sizing Information, AirLoopHVAC, ZONE WAREHOUSE FINE C END_A - STORY GROUND PSZ-AC, User Heating Air Flow Ratio [], 1.00000
 Component Sizing Information, AirLoopHVAC, ZONE WAREHOUSE FINE C END_A - STORY GROUND PSZ-AC, Calculated Heating Air Flow Ratio [], 1.00000
 Component Sizing Information, AirLoopHVAC, ZONE WAREHOUSE OFFICE A  - STORY GROUND PSZ-AC, Sum of Air Terminal Maximum Heating Flow Rates [m3/s], 0.36464
 Component Sizing Information, AirLoopHVAC, ZONE WAREHOUSE OFFICE A  - STORY GROUND PSZ-AC, Sum of Air Terminal Minimum Heating Flow Rates [m3/s], 0.36464
 Component Sizing Information, AirLoopHVAC, ZONE WAREHOUSE OFFICE A  - STORY GROUND PSZ-AC, Sum of Air Terminal Maximum Flow Rates [m3/s], 0.36464
 Component Sizing Information, AirLoopHVAC, ZONE WAREHOUSE OFFICE A  - STORY GROUND PSZ-AC, Adjusted Heating Design Air Flow Rate [m3/s], 0.36464
 Component Sizing Information, AirLoopHVAC, ZONE WAREHOUSE OFFICE A  - STORY GROUND PSZ-AC, Adjusted Cooling Design Air Flow Rate [m3/s], 0.36464
 Component Sizing Information, AirLoopHVAC, ZONE WAREHOUSE OFFICE A  - STORY GROUND PSZ-AC, Adjusted Main Design Air Flow Rate [m3/s], 0.36464
 Component Sizing Information, AirLoopHVAC, ZONE WAREHOUSE OFFICE A  - STORY GROUND PSZ-AC, User Heating Air Flow Ratio [], 1.00000
 Component Sizing Information, AirLoopHVAC, ZONE WAREHOUSE OFFICE A  - STORY GROUND PSZ-AC, Calculated Heating Air Flow Ratio [], 1.00000
 Component Sizing Information, AirLoopHVAC, ZONE WAREHOUSE OFFICE B  - STORY GROUND PSZ-AC, Sum of Air Terminal Maximum Heating Flow Rates [m3/s], 2.90815
 Component Sizing Information, AirLoopHVAC, ZONE WAREHOUSE OFFICE B  - STORY GROUND PSZ-AC, Sum of Air Terminal Minimum Heating Flow Rates [m3/s], 2.90815
 Component Sizing Information, AirLoopHVAC, ZONE WAREHOUSE OFFICE B  - STORY GROUND PSZ-AC, Sum of Air Terminal Maximum Flow Rates [m3/s], 2.90815
 Component Sizing Information, AirLoopHVAC, ZONE WAREHOUSE OFFICE B  - STORY GROUND PSZ-AC, Adjusted Heating Design Air Flow Rate [m3/s], 2.90815
 Component Sizing Information, AirLoopHVAC, ZONE WAREHOUSE OFFICE B  - STORY GROUND PSZ-AC, Adjusted Cooling Design Air Flow Rate [m3/s], 2.90815
 Component Sizing Information, AirLoopHVAC, ZONE WAREHOUSE OFFICE B  - STORY GROUND PSZ-AC, Adjusted Main Design Air Flow Rate [m3/s], 2.90815
 Component Sizing Information, AirLoopHVAC, ZONE WAREHOUSE OFFICE B  - STORY GROUND PSZ-AC, User Heating Air Flow Ratio [], 1.00000
 Component Sizing Information, AirLoopHVAC, ZONE WAREHOUSE OFFICE B  - STORY GROUND PSZ-AC, Calculated Heating Air Flow Ratio [], 1.00000
 Component Sizing Information, AirLoopHVAC, ZONE WAREHOUSE OFFICE C  - STORY GROUND PSZ-AC, Sum of Air Terminal Maximum Heating Flow Rates [m3/s], 0.25201
 Component Sizing Information, AirLoopHVAC, ZONE WAREHOUSE OFFICE C  - STORY GROUND PSZ-AC, Sum of Air Terminal Minimum Heating Flow Rates [m3/s], 0.25201
 Component Sizing Information, AirLoopHVAC, ZONE WAREHOUSE OFFICE C  - STORY GROUND PSZ-AC, Sum of Air Terminal Maximum Flow Rates [m3/s], 0.25201
 Component Sizing Information, AirLoopHVAC, ZONE WAREHOUSE OFFICE C  - STORY GROUND PSZ-AC, Adjusted Heating Design Air Flow Rate [m3/s], 0.25201
 Component Sizing Information, AirLoopHVAC, ZONE WAREHOUSE OFFICE C  - STORY GROUND PSZ-AC, Adjusted Cooling Design Air Flow Rate [m3/s], 0.25201
 Component Sizing Information, AirLoopHVAC, ZONE WAREHOUSE OFFICE C  - STORY GROUND PSZ-AC, Adjusted Main Design Air Flow Rate [m3/s], 0.25201
 Component Sizing Information, AirLoopHVAC, ZONE WAREHOUSE OFFICE C  - STORY GROUND PSZ-AC, User Heating Air Flow Ratio [], 1.00000
 Component Sizing Information, AirLoopHVAC, ZONE WAREHOUSE OFFICE C  - STORY GROUND PSZ-AC, Calculated Heating Air Flow Ratio [], 1.00000
 Component Sizing Information, AirLoopHVAC, ZONE WAREHOUSE FINE A  - STORY GROUND PSZ-AC, Design Supply Air Flow Rate [m3/s], 0.60023
 Component Sizing Information, AirLoopHVAC, ZONE WAREHOUSE FINE A END_A - STORY GROUND PSZ-AC, Design Supply Air Flow Rate [m3/s], 0.11704
 Component Sizing Information, AirLoopHVAC, ZONE WAREHOUSE FINE B  - STORY GROUND PSZ-AC, Design Supply Air Flow Rate [m3/s], 3.45788
 Component Sizing Information, AirLoopHVAC, ZONE WAREHOUSE FINE B END_A - STORY GROUND PSZ-AC, Design Supply Air Flow Rate [m3/s], 0.68659
 Component Sizing Information, AirLoopHVAC, ZONE WAREHOUSE FINE C  - STORY GROUND PSZ-AC, Design Supply Air Flow Rate [m3/s], 0.53973
 Component Sizing Information, AirLoopHVAC, ZONE WAREHOUSE FINE C END_A - STORY GROUND PSZ-AC, Design Supply Air Flow Rate [m3/s], 0.11724
 Component Sizing Information, AirLoopHVAC, ZONE WAREHOUSE OFFICE A  - STORY GROUND PSZ-AC, Design Supply Air Flow Rate [m3/s], 0.36464
 Component Sizing Information, AirLoopHVAC, ZONE WAREHOUSE OFFICE B  - STORY GROUND PSZ-AC, Design Supply Air Flow Rate [m3/s], 2.90815
 Component Sizing Information, AirLoopHVAC, ZONE WAREHOUSE OFFICE C  - STORY GROUND PSZ-AC, Design Supply Air Flow Rate [m3/s], 0.25201
!<Controller:MechanicalVentilation>,Name,Availability Schedule Name,Demand Controlled Ventilation {Yes/No},System Outdoor Air Method,Zone Maximum Outdoor Air Fraction,Number of Zones,Zone Name,DSOA Name,DSZAD Name
 Controller:MechanicalVentilation,CONTROLLER MECHANICAL VENTILATION 1,ALWAYS ON DISCRETE,No,ZoneSum,1.00,1,ZONE WAREHOUSE FINE A  - STORY GROUND,WAREHOUSE FINE VENTILATION,
 Controller:MechanicalVentilation,CONTROLLER MECHANICAL VENTILATION 2,ALWAYS ON DISCRETE,No,ZoneSum,1.00,1,ZONE WAREHOUSE FINE A END_A - STORY GROUND,WAREHOUSE FINE VENTILATION,
 Controller:MechanicalVentilation,CONTROLLER MECHANICAL VENTILATION 3,ZONE WAREHOUSE FINE B  - STORY GROUND PSZ-AC OCC SCH,No,ZoneSum,1.00,1,ZONE WAREHOUSE FINE B  - STORY GROUND,WAREHOUSE FINE VENTILATION,
 Controller:MechanicalVentilation,CONTROLLER MECHANICAL VENTILATION 4,ZONE WAREHOUSE FINE B END_A - STORY GROUND PSZ-AC OCC SCH,No,ZoneSum,1.00,1,ZONE WAREHOUSE FINE B END_A - STORY GROUND,WAREHOUSE FINE VENTILATION,
 Controller:MechanicalVentilation,CONTROLLER MECHANICAL VENTILATION 5,ALWAYS ON DISCRETE,No,ZoneSum,1.00,1,ZONE WAREHOUSE FINE C  - STORY GROUND,WAREHOUSE FINE VENTILATION,
 Controller:MechanicalVentilation,CONTROLLER MECHANICAL VENTILATION 6,ALWAYS ON DISCRETE,No,ZoneSum,1.00,1,ZONE WAREHOUSE FINE C END_A - STORY GROUND,WAREHOUSE FINE VENTILATION,
 Controller:MechanicalVentilation,CONTROLLER MECHANICAL VENTILATION 7,ALWAYS ON DISCRETE,No,ZoneSum,1.00,1,ZONE WAREHOUSE OFFICE A  - STORY GROUND,WAREHOUSE OFFICE VENTILATION,
 Controller:MechanicalVentilation,CONTROLLER MECHANICAL VENTILATION 8,ZONE WAREHOUSE OFFICE B  - STORY GROUND PSZ-AC OCC SCH,No,ZoneSum,1.00,1,ZONE WAREHOUSE OFFICE B  - STORY GROUND,WAREHOUSE OFFICE VENTILATION,
 Controller:MechanicalVentilation,CONTROLLER MECHANICAL VENTILATION 9,ALWAYS ON DISCRETE,No,ZoneSum,1.00,1,ZONE WAREHOUSE OFFICE C  - STORY GROUND,WAREHOUSE OFFICE VENTILATION,
 Component Sizing Information, Controller:OutdoorAir, ZONE WAREHOUSE FINE A  - STORY GROUND PSZ-AC OA SYSTEM CONTROLLER, Maximum Outdoor Air Flow Rate [m3/s], 0.60023
 Component Sizing Information, Controller:OutdoorAir, ZONE WAREHOUSE FINE A  - STORY GROUND PSZ-AC OA SYSTEM CONTROLLER, Minimum Outdoor Air Flow Rate [m3/s], 4.74848E-002
 Component Sizing Information, AirLoopHVAC:UnitarySystem, ZONE WAREHOUSE FINE A  - STORY GROUND PSZ-AC UNITARY AC, Design Size Supply Air Flow Rate [m3/s], 0.60023
 Component Sizing Information, AirLoopHVAC:UnitarySystem, ZONE WAREHOUSE FINE A  - STORY GROUND PSZ-AC UNITARY AC, Design Size Heating Supply Air Flow Rate [m3/s], 0.60023
 Component Sizing Information, AirLoopHVAC:UnitarySystem, ZONE WAREHOUSE FINE A  - STORY GROUND PSZ-AC UNITARY AC, Design Size Cooling Supply Air Flow Rate [m3/s], 0.60023
 Component Sizing Information, AirLoopHVAC:UnitarySystem, ZONE WAREHOUSE FINE A  - STORY GROUND PSZ-AC UNITARY AC, User-Specified No Load Supply Air Flow Rate [m3/s], 0.00000
[...]
 Component Sizing Information, AirLoopHVAC:UnitarySystem, ZONE WAREHOUSE FINE C END_A - STORY GROUND PSZ-AC UNITARY AC, User-Specified No Load Supply Air Flow Rate [m3/s], 0.00000
 Component Sizing Information, AirLoopHVAC:UnitarySystem, ZONE WAREHOUSE FINE C END_A - STORY GROUND PSZ-AC UNITARY AC, Design Size Nominal Cooling Capacity [W], 2039.39758
 Component Sizing Information, AirLoopHVAC:UnitarySystem, ZONE WAREHOUSE FINE C END_A - STORY GROUND PSZ-AC UNITARY AC, Design Size Nominal Heating Capacity [W], 5068.33194
 Component Sizing Information, AirLoopHVAC:UnitarySystem, ZONE WAREHOUSE FINE C END_A - STORY GROUND PSZ-AC UNITARY AC, Design Size Maximum Supply Air Temperature [C], 50.00000
 Component Sizing Information, AirLoopHVAC:UnitarySystem, ZONE WAREHOUSE FINE C END_A - STORY GROUND PSZ-AC UNITARY AC, User-Specified Maximum Supply Air Temperature [C], 80.00000
 Component Sizing Information, AirLoopHVAC:UnitarySystem, ZONE WAREHOUSE FINE C END_A - STORY GROUND PSZ-AC UNITARY AC, User-Specified Supplemental Heating Coil Nominal Capacity [W], 0.00000
 Component Sizing Information, AirLoopHVAC:UnitarySystem, ZONE WAREHOUSE FINE C END_A - STORY GROUND PSZ-AC UNITARY AC, Fraction of Supply Air Flow That Goes Through the Controlling Zone, 1.00000
 Component Sizing Information, Coil:Cooling:DX:SingleSpeed, ZONE WAREHOUSE FINE C END_A - STORY GROUND PSZ-AC 1SPD DX AC CLG COIL 7KBTU/HR 9.7SEER, Design Size Rated Air Flow Rate [m3/s], 0.11723
 Component Sizing Information, Coil:Cooling:DX:SingleSpeed, ZONE WAREHOUSE FINE C END_A - STORY GROUND PSZ-AC 1SPD DX AC CLG COIL 7KBTU/HR 9.7SEER, Design Size Gross Rated Total Cooling Capacity [W], 2039.39758
 Component Sizing Information, Coil:Cooling:DX:SingleSpeed, ZONE WAREHOUSE FINE C END_A - STORY GROUND PSZ-AC 1SPD DX AC CLG COIL 7KBTU/HR 9.7SEER, Design Size Gross Rated Sensible Heat Ratio, 0.80084
 DX Cooling Coil Standard Rating Information, Coil:Cooling:DX:SingleSpeed, ZONE WAREHOUSE FINE C END_A - STORY GROUND PSZ-AC 1SPD DX AC CLG COIL 7KBTU/HR 9.7SEER, 1948.5, 2.64, 9.00, 10.34, 9.46, 9.86
 DX Cooling Coil Standard Rating Information, Coil:Cooling:DX:SingleSpeed, ZONE WAREHOUSE FINE C END_A - STORY GROUND PSZ-AC 1SPD DX AC CLG COIL 7KBTU/HR 9.7SEER, 1929.7, 2.55, 8.69, 9.96, 9.36,  
 Component Sizing Information, Coil:Heating:Fuel, ZONE WAREHOUSE FINE C END_A - STORY GROUND PSZ-AC GAS HTG COIL 17KBTU/HR 0.8 THERMAL EFF, Design Size Nominal Capacity [W], 5068.33194
 Component Sizing Information, Fan:OnOff, ZONE WAREHOUSE FINE C END_A - STORY GROUND PSZ-AC FAN, Design Size Maximum Flow Rate [m3/s], 0.11724
 Component Sizing Information, Coil:Heating:Electric, ZONE WAREHOUSE FINE C END_A - STORY GROUND PSZ-AC NO HEAT, User-Specified Nominal Capacity [W], 0.00000
 Component Sizing Information, Controller:OutdoorAir, ZONE WAREHOUSE OFFICE A  - STORY GROUND PSZ-AC OA SYSTEM CONTROLLER, Maximum Outdoor Air Flow Rate [m3/s], 0.36464
 Component Sizing Information, Controller:OutdoorAir, ZONE WAREHOUSE OFFICE A  - STORY GROUND PSZ-AC OA SYSTEM CONTROLLER, Minimum Outdoor Air Flow Rate [m3/s], 7.03728E-003
 Component Sizing Information, AirLoopHVAC:UnitarySystem, ZONE WAREHOUSE OFFICE A  - STORY GROUND PSZ-AC UNITARY AC, Design Size Supply Air Flow Rate [m3/s], 0.36464
 Component Sizing Information, AirLoopHVAC:UnitarySystem, ZONE WAREHOUSE OFFICE A  - STORY GROUND PSZ-AC UNITARY AC, Design Size Heating Supply Air Flow Rate [m3/s], 0.36464
 Component Sizing Information, AirLoopHVAC:UnitarySystem, ZONE WAREHOUSE OFFICE A  - STORY GROUND PSZ-AC UNITARY AC, Design Size Cooling Supply Air Flow Rate [m3/s], 0.36464
 Component Sizing Information, AirLoopHVAC:UnitarySystem, ZONE WAREHOUSE OFFICE A  - STORY GROUND PSZ-AC UNITARY AC, User-Specified No Load Supply Air Flow Rate [m3/s], 0.00000
 Component Sizing Information, AirLoopHVAC:UnitarySystem, ZONE WAREHOUSE OFFICE A  - STORY GROUND PSZ-AC UNITARY AC, Design Size Nominal Cooling Capacity [W], 6036.03624
 Component Sizing Information, AirLoopHVAC:UnitarySystem, ZONE WAREHOUSE OFFICE A  - STORY GROUND PSZ-AC UNITARY AC, Design Size Nominal Heating Capacity [W], 13187.65361
 Component Sizing Information, AirLoopHVAC:UnitarySystem, ZONE WAREHOUSE OFFICE A  - STORY GROUND PSZ-AC UNITARY AC, Design Size Maximum Supply Air Temperature [C], 50.00000
 Component Sizing Information, AirLoopHVAC:UnitarySystem, ZONE WAREHOUSE OFFICE A  - STORY GROUND PSZ-AC UNITARY AC, User-Specified Maximum Supply Air Temperature [C], 80.00000
 Component Sizing Information, AirLoopHVAC:UnitarySystem, ZONE WAREHOUSE OFFICE A  - STORY GROUND PSZ-AC UNITARY AC, User-Specified Supplemental Heating Coil Nominal Capacity [W], 0.00000
 Component Sizing Information, AirLoopHVAC:UnitarySystem, ZONE WAREHOUSE OFFICE A  - STORY GROUND PSZ-AC UNITARY AC, Fraction of Supply Air Flow That Goes Through the Controlling Zone, 1.00000
 Component Sizing Information, Coil:Cooling:DX:SingleSpeed, ZONE WAREHOUSE OFFICE A  - STORY GROUND PSZ-AC 1SPD DX AC CLG COIL 16KBTU/HR 9.7SEER, Design Size Rated Air Flow Rate [m3/s], 0.36464
 Component Sizing Information, Coil:Cooling:DX:SingleSpeed, ZONE WAREHOUSE OFFICE A  - STORY GROUND PSZ-AC 1SPD DX AC CLG COIL 16KBTU/HR 9.7SEER, Design Size Gross Rated Total Cooling Capacity [W], 6036.03624
 Component Sizing Information, Coil:Cooling:DX:SingleSpeed, ZONE WAREHOUSE OFFICE A  - STORY GROUND PSZ-AC 1SPD DX AC CLG COIL 16KBTU/HR 9.7SEER, Design Size Gross Rated Sensible Heat Ratio, 0.80066
 DX Cooling Coil Standard Rating Information, Coil:Cooling:DX:SingleSpeed, ZONE WAREHOUSE OFFICE A  - STORY GROUND PSZ-AC 1SPD DX AC CLG COIL 16KBTU/HR 9.7SEER, 5753.5, 2.62, 8.92, 10.25, 9.37, 9.72
 DX Cooling Coil Standard Rating Information, Coil:Cooling:DX:SingleSpeed, ZONE WAREHOUSE OFFICE A  - STORY GROUND PSZ-AC 1SPD DX AC CLG COIL 16KBTU/HR 9.7SEER, 5694.7, 2.52, 8.60, 9.84, 9.26,  
 Component Sizing Information, Coil:Heating:Fuel, ZONE WAREHOUSE OFFICE A  - STORY GROUND PSZ-AC GAS HTG COIL 36KBTU/HR 0.8 THERMAL EFF, Design Size Nominal Capacity [W], 13187.65361
 Component Sizing Information, Fan:OnOff, ZONE WAREHOUSE OFFICE A  - STORY GROUND PSZ-AC FAN, Design Size Maximum Flow Rate [m3/s], 0.36464
 Component Sizing Information, Coil:Heating:Electric, ZONE WAREHOUSE OFFICE A  - STORY GROUND PSZ-AC NO HEAT, User-Specified Nominal Capacity [W], 0.00000
 Component Sizing Information, Controller:OutdoorAir, ZONE WAREHOUSE OFFICE B  - STORY GROUND PSZ-AC OA SYSTEM CONTROLLER, Maximum Outdoor Air Flow Rate [m3/s], 2.90815
 Component Sizing Information, Controller:OutdoorAir, ZONE WAREHOUSE OFFICE B  - STORY GROUND PSZ-AC OA SYSTEM CONTROLLER, Minimum Outdoor Air Flow Rate [m3/s], 6.68592E-002
 Component Sizing Information, AirLoopHVAC:UnitarySystem, ZONE WAREHOUSE OFFICE B  - STORY GROUND PSZ-AC UNITARY AC, Design Size Supply Air Flow Rate [m3/s], 2.90815
 Component Sizing Information, AirLoopHVAC:UnitarySystem, ZONE WAREHOUSE OFFICE B  - STORY GROUND PSZ-AC UNITARY AC, Design Size Heating Supply Air Flow Rate [m3/s], 2.90815
 Component Sizing Information, AirLoopHVAC:UnitarySystem, ZONE WAREHOUSE OFFICE B  - STORY GROUND PSZ-AC UNITARY AC, Design Size Cooling Supply Air Flow Rate [m3/s], 2.90815
 Component Sizing Information, AirLoopHVAC:UnitarySystem, ZONE WAREHOUSE OFFICE B  - STORY GROUND PSZ-AC UNITARY AC, User-Specified No Load Supply Air Flow Rate [m3/s], 0.00000
 Component Sizing Information, AirLoopHVAC:UnitarySystem, ZONE WAREHOUSE OFFICE B  - STORY GROUND PSZ-AC UNITARY AC, Design Size Nominal Cooling Capacity [W], 48140.27385
 Component Sizing Information, AirLoopHVAC:UnitarySystem, ZONE WAREHOUSE OFFICE B  - STORY GROUND PSZ-AC UNITARY AC, Design Size Nominal Heating Capacity [W], 105480.96221
 Component Sizing Information, AirLoopHVAC:UnitarySystem, ZONE WAREHOUSE OFFICE B  - STORY GROUND PSZ-AC UNITARY AC, Design Size Maximum Supply Air Temperature [C], 50.00000
 Component Sizing Information, AirLoopHVAC:UnitarySystem, ZONE WAREHOUSE OFFICE B  - STORY GROUND PSZ-AC UNITARY AC, User-Specified Maximum Supply Air Temperature [C], 80.00000
 Component Sizing Information, AirLoopHVAC:UnitarySystem, ZONE WAREHOUSE OFFICE B  - STORY GROUND PSZ-AC UNITARY AC, User-Specified Supplemental Heating Coil Nominal Capacity [W], 0.00000
 Component Sizing Information, AirLoopHVAC:UnitarySystem, ZONE WAREHOUSE OFFICE B  - STORY GROUND PSZ-AC UNITARY AC, Fraction of Supply Air Flow That Goes Through the Controlling Zone, 1.00000
 Component Sizing Information, Coil:Cooling:DX:SingleSpeed, ZONE WAREHOUSE OFFICE B  - STORY GROUND PSZ-AC 1SPD DX AC CLG COIL 123KBTU/HR 8.9EER, Design Size Rated Air Flow Rate [m3/s], 2.90815
 Component Sizing Information, Coil:Cooling:DX:SingleSpeed, ZONE WAREHOUSE OFFICE B  - STORY GROUND PSZ-AC 1SPD DX AC CLG COIL 123KBTU/HR 8.9EER, Design Size Gross Rated Total Cooling Capacity [W], 48140.27385
 Component Sizing Information, Coil:Cooling:DX:SingleSpeed, ZONE WAREHOUSE OFFICE B  - STORY GROUND PSZ-AC 1SPD DX AC CLG COIL 123KBTU/HR 8.9EER, Design Size Gross Rated Sensible Heat Ratio, 0.80066
 DX Cooling Coil Standard Rating Information, Coil:Cooling:DX:SingleSpeed, ZONE WAREHOUSE OFFICE B  - STORY GROUND PSZ-AC 1SPD DX AC CLG COIL 123KBTU/HR 8.9EER, 45886.5, 2.58, 8.81, 10.11, 9.25, 9.61
 DX Cooling Coil Standard Rating Information, Coil:Cooling:DX:SingleSpeed, ZONE WAREHOUSE OFFICE B  - STORY GROUND PSZ-AC 1SPD DX AC CLG COIL 123KBTU/HR 8.9EER, 45418.0, 2.49, 8.49, 9.72, 9.14,  
 Component Sizing Information, Coil:Heating:Fuel, ZONE WAREHOUSE OFFICE B  - STORY GROUND PSZ-AC GAS HTG COIL 269KBTU/HR 0.8 THERMAL EFF, Design Size Nominal Capacity [W], 105480.96221
 Component Sizing Information, Fan:OnOff, ZONE WAREHOUSE OFFICE B  - STORY GROUND PSZ-AC FAN, Design Size Maximum Flow Rate [m3/s], 2.90815
 Component Sizing Information, Coil:Heating:Electric, ZONE WAREHOUSE OFFICE B  - STORY GROUND PSZ-AC NO HEAT, User-Specified Nominal Capacity [W], 0.00000
 Component Sizing Information, Controller:OutdoorAir, ZONE WAREHOUSE OFFICE C  - STORY GROUND PSZ-AC OA SYSTEM CONTROLLER, Maximum Outdoor Air Flow Rate [m3/s], 0.25201
 Component Sizing Information, Controller:OutdoorAir, ZONE WAREHOUSE OFFICE C  - STORY GROUND PSZ-AC OA SYSTEM CONTROLLER, Minimum Outdoor Air Flow Rate [m3/s], 7.03728E-003
 Component Sizing Information, AirLoopHVAC:UnitarySystem, ZONE WAREHOUSE OFFICE C  - STORY GROUND PSZ-AC UNITARY AC, Design Size Supply Air Flow Rate [m3/s], 0.25201
 Component Sizing Information, AirLoopHVAC:UnitarySystem, ZONE WAREHOUSE OFFICE C  - STORY GROUND PSZ-AC UNITARY AC, Design Size Heating Supply Air Flow Rate [m3/s], 0.25201
 Component Sizing Information, AirLoopHVAC:UnitarySystem, ZONE WAREHOUSE OFFICE C  - STORY GROUND PSZ-AC UNITARY AC, Design Size Cooling Supply Air Flow Rate [m3/s], 0.25201
 Component Sizing Information, AirLoopHVAC:UnitarySystem, ZONE WAREHOUSE OFFICE C  - STORY GROUND PSZ-AC UNITARY AC, User-Specified No Load Supply Air Flow Rate [m3/s], 0.00000
 Component Sizing Information, AirLoopHVAC:UnitarySystem, ZONE WAREHOUSE OFFICE C  - STORY GROUND PSZ-AC UNITARY AC, Design Size Nominal Cooling Capacity [W], 4171.66590
 Component Sizing Information, AirLoopHVAC:UnitarySystem, ZONE WAREHOUSE OFFICE C  - STORY GROUND PSZ-AC UNITARY AC, Design Size Nominal Heating Capacity [W], 9202.54143
 Component Sizing Information, AirLoopHVAC:UnitarySystem, ZONE WAREHOUSE OFFICE C  - STORY GROUND PSZ-AC UNITARY AC, Design Size Maximum Supply Air Temperature [C], 50.00000
 Component Sizing Information, AirLoopHVAC:UnitarySystem, ZONE WAREHOUSE OFFICE C  - STORY GROUND PSZ-AC UNITARY AC, User-Specified Maximum Supply Air Temperature [C], 80.00000
 Component Sizing Information, AirLoopHVAC:UnitarySystem, ZONE WAREHOUSE OFFICE C  - STORY GROUND PSZ-AC UNITARY AC, User-Specified Supplemental Heating Coil Nominal Capacity [W], 0.00000
 Component Sizing Information, AirLoopHVAC:UnitarySystem, ZONE WAREHOUSE OFFICE C  - STORY GROUND PSZ-AC UNITARY AC, Fraction of Supply Air Flow That Goes Through the Controlling Zone, 1.00000
 Component Sizing Information, Coil:Cooling:DX:SingleSpeed, ZONE WAREHOUSE OFFICE C  - STORY GROUND PSZ-AC 1SPD DX AC CLG COIL 12KBTU/HR 9.7SEER, Design Size Rated Air Flow Rate [m3/s], 0.25201
 Component Sizing Information, Coil:Cooling:DX:SingleSpeed, ZONE WAREHOUSE OFFICE C  - STORY GROUND PSZ-AC 1SPD DX AC CLG COIL 12KBTU/HR 9.7SEER, Design Size Gross Rated Total Cooling Capacity [W], 4171.66590
 Component Sizing Information, Coil:Cooling:DX:SingleSpeed, ZONE WAREHOUSE OFFICE C  - STORY GROUND PSZ-AC 1SPD DX AC CLG COIL 12KBTU/HR 9.7SEER, Design Size Gross Rated Sensible Heat Ratio, 0.80066
 DX Cooling Coil Standard Rating Information, Coil:Cooling:DX:SingleSpeed, ZONE WAREHOUSE OFFICE C  - STORY GROUND PSZ-AC 1SPD DX AC CLG COIL 12KBTU/HR 9.7SEER, 3976.4, 2.62, 8.92, 10.25, 9.37, 9.72
 DX Cooling Coil Standard Rating Information, Coil:Cooling:DX:SingleSpeed, ZONE WAREHOUSE OFFICE C  - STORY GROUND PSZ-AC 1SPD DX AC CLG COIL 12KBTU/HR 9.7SEER, 3935.8, 2.52, 8.60, 9.84, 9.26,  
 Component Sizing Information, Coil:Heating:Fuel, ZONE WAREHOUSE OFFICE C  - STORY GROUND PSZ-AC GAS HTG COIL 27KBTU/HR 0.8 THERMAL EFF, Design Size Nominal Capacity [W], 9202.54143
 Component Sizing Information, Fan:OnOff, ZONE WAREHOUSE OFFICE C  - STORY GROUND PSZ-AC FAN, Design Size Maximum Flow Rate [m3/s], 0.25201
 Component Sizing Information, Coil:Heating:Electric, ZONE WAREHOUSE OFFICE C  - STORY GROUND PSZ-AC NO HEAT, User-Specified Nominal Capacity [W], 0.00000
Water Heater Information,WaterHeater:Mixed,40GAL ELECTRICITY WATER HEATER - 40KBTU/HR 1.0 THERM EFF 1.0 THERM EFF,0.1514,11722.8,3.752,0.4491
 Component Sizing Information, PlantLoop, MAIN SERVICE WATER LOOP, Maximum Loop Flow Rate [m3/s], 0.00000
 Component Sizing Information, PlantLoop, MAIN SERVICE WATER LOOP, Plant Loop Volume [m3], 0.00000
 Component Sizing Information, Pump:VariableSpeed, MAIN SERVICE WATER LOOP WATER MAINS PRESSURE DRIVEN, Design Flow Rate [m3/s], 0.00000
 Component Sizing Information, Pump:VariableSpeed, MAIN SERVICE WATER LOOP WATER MAINS PRESSURE DRIVEN, Design Power Consumption [W], 0.00000
 Component Sizing Information, WaterHeater:Mixed, 40GAL ELECTRICITY WATER HEATER - 40KBTU/HR 1.0 THERM EFF 1.0 THERM EFF, Use Side Design Flow Rate [m3/s], 0.00000
! <Environment>,Environment Name,Environment Type, Start Date, End Date, Start DayOfWeek, Duration {#days}, Source:Start DayOfWeek,  Use Daylight Saving, Use Holidays, Apply Weekend Holiday Rule,  Use Rain Values, Use Snow Values, Sky Temperature Model
! <Environment:Special Days>, Special Day Name, Special Day Type, Source, Start Date, Duration {#days}
! <Environment:Daylight Saving>, Daylight Saving Indicator, Source, Start Date, End Date
! <Environment:WarmupDays>, NumberofWarmupDays
Environment,RUN PERIOD 1,WeatherFileRunPeriod,01/01/2006,12/31/2006,Sunday,365,Use RunPeriod Specified Day,No,No,No,Yes,Yes,Clark and Allen
Environment:Daylight Saving,Yes,InputFile,03/12,11/05
Environment:WarmupDays, 13
! <Tabular Report>,Style,Unit Conversion
Tabular Report,HTML,None
! <Warmup Convergence Information>,Zone Name,Environment Type/Name,Average Warmup Temperature Difference {deltaC},Std Dev Warmup Temperature Difference {deltaC},Max Temperature Pass/Fail Convergence,Min Temperature Pass/Fail Convergence,Average Warmup Load Difference {W},Std Dev Warmup Load Difference {W},Heating Load Pass/Fail Convergence,Cooling Load Pass/Fail Convergence
 Warmup Convergence Information,ZONE WAREHOUSE BULK A  - STORY GROUND,RunPeriod: RUN PERIOD 1,0.2990470829,0.2355993572,Pass,Pass,0.0000000000,0.0000000000,Pass,Pass
 Warmup Convergence Information,ZONE WAREHOUSE BULK A  - STORY TOP,RunPeriod: RUN PERIOD 1,0.4903460374,0.4193319898,Pass,Pass,0.0000000000,0.0000000000,Pass,Pass
 Warmup Convergence Information,ZONE WAREHOUSE BULK A END_A - STORY TOP,RunPeriod: RUN PERIOD 1,4.8917464553E-002,0.1222152649,Pass,Pass,0.2076776068,0.4544532292,Pass,Pass
 Warmup Convergence Information,ZONE WAREHOUSE BULK A END_B - STORY GROUND,RunPeriod: RUN PERIOD 1,1.0764856680E-002,3.3584999304E-002,Pass,Pass,0.7957225990,2.2025716263,Pass,Pass
 Warmup Convergence Information,ZONE WAREHOUSE BULK A END_B - STORY TOP,RunPeriod: RUN PERIOD 1,0.1081374467,0.2108965799,Pass,Pass,0.1223513413,0.1450135776,Pass,Pass
 Warmup Convergence Information,ZONE WAREHOUSE BULK B  - STORY GROUND,RunPeriod: RUN PERIOD 1,0.1568454017,0.2665276719,Pass,Pass,0.0000000000,0.0000000000,Pass,Pass
 Warmup Convergence Information,ZONE WAREHOUSE BULK B  - STORY TOP,RunPeriod: RUN PERIOD 1,0.3301595779,0.3404128968,Pass,Pass,0.0000000000,0.0000000000,Pass,Pass
 Warmup Convergence Information,ZONE WAREHOUSE BULK B END_A - STORY TOP,RunPeriod: RUN PERIOD 1,0.2635371292,0.2109769102,Pass,Pass,0.0000000000,0.0000000000,Pass,Pass
 Warmup Convergence Information,ZONE WAREHOUSE BULK B END_B - STORY GROUND,RunPeriod: RUN PERIOD 1,0.2017064514,0.2007219964,Pass,Pass,0.0000000000,0.0000000000,Pass,Pass
 Warmup Convergence Information,ZONE WAREHOUSE BULK B END_B - STORY TOP,RunPeriod: RUN PERIOD 1,0.2872831713,0.2848370818,Pass,Pass,0.0000000000,0.0000000000,Pass,Pass
 Warmup Convergence Information,ZONE WAREHOUSE BULK C  - STORY GROUND,RunPeriod: RUN PERIOD 1,0.1735734764,0.1765919115,Pass,Pass,0.0000000000,0.0000000000,Pass,Pass
 Warmup Convergence Information,ZONE WAREHOUSE BULK C  - STORY TOP,RunPeriod: RUN PERIOD 1,0.2448042449,0.2184347730,Pass,Pass,0.0000000000,0.0000000000,Pass,Pass
 Warmup Convergence Information,ZONE WAREHOUSE BULK C END_A - STORY TOP,RunPeriod: RUN PERIOD 1,2.2204460493E-015,2.0025091597E-015,Pass,Pass,9.1655933666E-002,8.6136131857E-002,Pass,Pass
 Warmup Convergence Information,ZONE WAREHOUSE BULK C END_B - STORY GROUND,RunPeriod: RUN PERIOD 1,2.2204460493E-015,1.7199501140E-015,Pass,Pass,0.1032455585,0.1222497882,Pass,Pass
 Warmup Convergence Information,ZONE WAREHOUSE BULK C END_B - STORY TOP,RunPeriod: RUN PERIOD 1,2.0724163126E-015,2.0296814897E-015,Pass,Pass,0.1518102808,0.2030227753,Pass,Pass
 Warmup Convergence Information,ZONE WAREHOUSE FINE A  - STORY GROUND,RunPeriod: RUN PERIOD 1,0.2153578850,0.1954222152,Pass,Pass,0.0000000000,0.0000000000,Pass,Pass
 Warmup Convergence Information,ZONE WAREHOUSE FINE A END_A - STORY GROUND,RunPeriod: RUN PERIOD 1,5.9248138261E-005,1.2442322151E-004,Pass,Pass,0.1778353007,0.2319689106,Pass,Pass
 Warmup Convergence Information,ZONE WAREHOUSE FINE B  - STORY GROUND,RunPeriod: RUN PERIOD 1,2.0117289276E-002,1.5534948599E-002,Pass,Pass,0.0000000000,0.0000000000,Pass,Pass
 Warmup Convergence Information,ZONE WAREHOUSE FINE B END_A - STORY GROUND,RunPeriod: RUN PERIOD 1,0.1075314024,0.1198266670,Pass,Pass,0.0000000000,0.0000000000,Pass,Pass
 Warmup Convergence Information,ZONE WAREHOUSE FINE C  - STORY GROUND,RunPeriod: RUN PERIOD 1,0.1068952988,0.1210086660,Pass,Pass,0.0000000000,0.0000000000,Pass,Pass
 Warmup Convergence Information,ZONE WAREHOUSE FINE C END_A - STORY GROUND,RunPeriod: RUN PERIOD 1,6.6938171141E-005,1.4178651250E-004,Pass,Pass,6.3645950678E-002,7.4368213255E-002,Pass,Pass
 Warmup Convergence Information,ZONE WAREHOUSE OFFICE A  - STORY GROUND,RunPeriod: RUN PERIOD 1,0.2568639148,0.2153898417,Pass,Pass,0.0000000000,0.0000000000,Pass,Pass
 Warmup Convergence Information,ZONE WAREHOUSE OFFICE B  - STORY GROUND,RunPeriod: RUN PERIOD 1,0.1044454088,0.1776580942,Pass,Pass,0.0000000000,0.0000000000,Pass,Pass
 Warmup Convergence Information,ZONE WAREHOUSE OFFICE C  - STORY GROUND,RunPeriod: RUN PERIOD 1,0.1452156169,0.1863000469,Pass,Pass,0.1345182035,0.4495945556,Pass,Pass
! <Program Control Information:Threads/Parallel Sims>, Threading Supported,Maximum Number of Threads, Env Set Threads (OMP_NUM_THREADS), EP Env Set Threads (EP_OMP_NUM_THREADS), IDF Set Threads, Number of Threads Used (Interior Radiant Exchange), Number Nominal Surfaces, Number Parallel Sims
Program Control:Threads/Parallel Sims, No,1, N/A, N/A, N/A, N/A, N/A, N/A
End of Data
