Program Version,EnergyPlus, Version 22.2.0-aa78da9668, YMD=2023.04.24 11:46
! <Version>, Version ID
 Version, 22.2
! <Timesteps per Hour>, #TimeSteps, Minutes per TimeStep {minutes}
 Timesteps per Hour,  6, 10
! <System Convergence Limits>, Minimum System TimeStep {minutes}, Max HVAC Iterations, Minimum Plant Iterations, Maximum Plant Iterations
 System Convergence Limits, 1, 20, 2, 8
! <Simulation Control>, Do Zone Sizing, Do System Sizing, Do Plant Sizing, Do Design Days, Do Weather Simulation, Do HVAC Sizing Simulation
 Simulation Control, Yes, Yes, Yes, Yes, No, Yes
! <Performance Precision Tradeoffs>, Use Coil Direct Simulation, Zone Radiant Exchange Algorithm, Override Mode, Number of Timestep In Hour, Force Euler Method, Minimum Number of Warmup Days, Force Suppress All Begin Environment Resets, Minimum System Timestep, MaxZoneTempDiff, MaxAllowedDelTemp
 Performance Precision Tradeoffs, No, ScriptF, Normal, 6, No, 1, No, 1.0, 0.300, 2.0000E-003
! <Output Reporting Tolerances>, Tolerance for Time Heating Setpoint Not Met, Tolerance for Zone Cooling Setpoint Not Met Time
 Output Reporting Tolerances, 0.200, 0.200, 
! <Site:GroundTemperature:BuildingSurface>,Jan{C},Feb{C},Mar{C},Apr{C},May{C},Jun{C},Jul{C},Aug{C},Sep{C},Oct{C},Nov{C},Dec{C}
 Site:GroundTemperature:BuildingSurface,  18.00,  18.00,  18.00,  18.00,  18.00,  18.00,  18.00,  18.00,  18.00,  18.00,  18.00,  18.00
! <Site:GroundTemperature:FCfactorMethod>,Jan{C},Feb{C},Mar{C},Apr{C},May{C},Jun{C},Jul{C},Aug{C},Sep{C},Oct{C},Nov{C},Dec{C}
 Site:GroundTemperature:FCfactorMethod,  -3.10, -17.70, -19.30, -17.60, -15.40, -10.30,   0.70,  10.60,  16.00,  16.90,  14.20,   6.70
! <Site:GroundTemperature:Shallow>,Jan{C},Feb{C},Mar{C},Apr{C},May{C},Jun{C},Jul{C},Aug{C},Sep{C},Oct{C},Nov{C},Dec{C}
 Site:GroundTemperature:Shallow,  13.00,  13.00,  13.00,  13.00,  13.00,  13.00,  13.00,  13.00,  13.00,  13.00,  13.00,  13.00
! <Site:GroundTemperature:Deep>,Jan{C},Feb{C},Mar{C},Apr{C},May{C},Jun{C},Jul{C},Aug{C},Sep{C},Oct{C},Nov{C},Dec{C}
 Site:GroundTemperature:Deep,  16.00,  16.00,  16.00,  16.00,  16.00,  16.00,  16.00,  16.00,  16.00,  16.00,  16.00,  16.00
! <Site:GroundReflectance>,Jan{dimensionless},Feb{dimensionless},Mar{dimensionless},Apr{dimensionless},May{dimensionless},Jun{dimensionless},Jul{dimensionless},Aug{dimensionless},Sep{dimensionless},Oct{dimensionless},Nov{dimensionless},Dec{dimensionless}
 Site:GroundReflectance,  0.20,  0.20,  0.20,  0.20,  0.20,  0.20,  0.20,  0.20,  0.20,  0.20,  0.20,  0.20
! <Site:GroundReflectance:SnowModifier>, Normal, Daylighting {dimensionless}
 Site:GroundReflectance:SnowModifier,   1.000,   1.000
! <Site:GroundReflectance:Snow>,Jan{dimensionless},Feb{dimensionless},Mar{dimensionless},Apr{dimensionless},May{dimensionless},Jun{dimensionless},Jul{dimensionless},Aug{dimensionless},Sep{dimensionless},Oct{dimensionless},Nov{dimensionless},Dec{dimensionless}
 Site:GroundReflectance:Snow,  0.20,  0.20,  0.20,  0.20,  0.20,  0.20,  0.20,  0.20,  0.20,  0.20,  0.20,  0.20
! <Site:GroundReflectance:Snow:Daylighting>,Jan{dimensionless},Feb{dimensionless},Mar{dimensionless},Apr{dimensionless},May{dimensionless},Jun{dimensionless},Jul{dimensionless},Aug{dimensionless},Sep{dimensionless},Oct{dimensionless},Nov{dimensionless},Dec{dimensionless}
 Site:GroundReflectance:Snow:Daylighting,  0.20,  0.20,  0.20,  0.20,  0.20,  0.20,  0.20,  0.20,  0.20,  0.20,  0.20,  0.20
! <Environment:Weather Station>,Wind Sensor Height Above Ground {m},Wind Speed Profile Exponent {},Wind Speed Profile Boundary Layer Thickness {m},Air Temperature Sensor Height Above Ground {m},Wind Speed Modifier Coefficient-Internal,Temperature Modifier Coefficient-Internal
Environment:Weather Station,10.000,0.140,270.000,1.500,1.586,9.750E-003
! <Site:Location>, Location Name, Latitude {N+/S- Deg}, Longitude {E+/W- Deg},  Time Zone Number {GMT+/-}, Elevation {m},  Standard Pressure at Elevation {Pa}, Standard RhoAir at Elevation
Site:Location,Kodiak AK USA customized weather file WMO#=703500,57.75,-152.49,-9.00,34.00,100917,1.1995
! <Site Water Mains Temperature Information>,Calculation Method{},Water Mains Temperature Schedule Name{},Annual Average Outdoor Air Temperature{C},Maximum Difference In Monthly Average Outdoor Air Temperatures{deltaC},Fixed Default Water Mains Temperature{C}
Site Water Mains Temperature Information,Correlation,NA,-1.53,36.20,NA
! <Building Information>, Building Name,North Axis {deg},Terrain,  Loads Convergence Tolerance Value,Temperature Convergence Tolerance Value,  Solar Distribution,Maximum Number of Warmup Days,Minimum Number of Warmup Days
 Building Information,90.1-2016|Warehouse,0.000,Urban,4.00000E-002,0.20000,FullInteriorAndExterior,25,6
! <Inside Convection Algorithm>, Algorithm {Simple | TARP | CeilingDiffuser | AdaptiveConvectionAlgorithm}
Inside Convection Algorithm,TARP
! <Outside Convection Algorithm>, Algorithm {SimpleCombined | TARP | MoWitt | DOE-2 | AdaptiveConvectionAlgorithm}
Outside Convection Algorithm,TARP
! <Sky Radiance Distribution>, Value {Anisotropic}
Sky Radiance Distribution,Anisotropic
! <Zone Air Solution Algorithm>, Value {ThirdOrderBackwardDifference | AnalyticalSolution | EulerMethod}
 Zone Air Solution Algorithm, ThirdOrderBackwardDifference
! <Zone Air Carbon Dioxide Balance Simulation>, Simulation {Yes/No}, Carbon Dioxide Concentration
 Zone Air Carbon Dioxide Balance Simulation, No,N/A
! <Zone Air Generic Contaminant Balance Simulation>, Simulation {Yes/No}, Generic Contaminant Concentration
 Zone Air Generic Contaminant Balance Simulation, No,N/A
! <Zone Air Mass Flow Balance Simulation>, Enforce Mass Balance, Adjust Zone Mixing and Return {AdjustMixingOnly | AdjustReturnOnly | AdjustMixingThenReturn | AdjustReturnThenMixing | None}, Adjust Zone Infiltration {AddInfiltration | AdjustInfiltration | None}, Infiltration Zones {MixingSourceZonesOnly | AllZones}
 Zone Air Mass Flow Balance Simulation, No,N/A,N/A,N/A
! <HVACSystemRootFindingAlgorithm>, Value {RegulaFalsi | Bisection | BisectionThenRegulaFalsi | RegulaFalsiThenBisection}
 HVACSystemRootFindingAlgorithm, RegulaFalsi
! <Environment:Site Atmospheric Variation>,Wind Speed Profile Exponent {},Wind Speed Profile Boundary Layer Thickness {m},Air Temperature Gradient Coefficient {K/m}
Environment:Site Atmospheric Variation,0.220,370.000,6.500000E-003
! <Surface Geometry>,Starting Corner,Vertex Input Direction,Coordinate System,Daylight Reference Point Coordinate System,Rectangular (Simple) Surface Coordinate System
 Surface Geometry,UpperLeftCorner,Counterclockwise,RelativeCoordinateSystem,RelativeCoordinateSystem,RelativeToZoneOrigin
! <Surface Heat Transfer Algorithm>, Value {CTF - ConductionTransferFunction | EMPD - MoisturePenetrationDepthConductionTransferFunction | CondFD - ConductionFiniteDifference | HAMT - CombinedHeatAndMoistureFiniteElement} - Description,Inside Surface Max Temperature Limit{C}, Surface Convection Coefficient Lower Limit {W/m2-K}, Surface Convection Coefficient Upper Limit {W/m2-K}
Surface Heat Transfer Algorithm, CTF - ConductionTransferFunction,200,0.10,1000.0
! <Shading Summary>, Number of Fixed Detached Shades, Number of Building Detached Shades, Number of Attached Shades
 Shading Summary,0,0,0
! <Zone Summary>, Number of Zones, Number of Zone Surfaces, Number of SubSurfaces
 Zone Summary,15,106,16
! <Zone Information>,Zone Name,North Axis {deg},Origin X-Coordinate {m},Origin Y-Coordinate {m},Origin Z-Coordinate {m},Centroid X-Coordinate {m},Centroid Y-Coordinate {m},Centroid Z-Coordinate {m},Type,Zone Multiplier,Zone List Multiplier,Minimum X {m},Maximum X {m},Minimum Y {m},Maximum Y {m},Minimum Z {m},Maximum Z {m},Ceiling Height {m},Volume {m3},Zone Inside Convection Algorithm {Simple-Detailed-CeilingDiffuser-TrombeWall},Zone Outside Convection Algorithm {Simple-Detailed-Tarp-MoWitt-DOE-2-BLAST}, Floor Area {m2},Exterior Gross Wall Area {m2},Exterior Net Wall Area {m2},Exterior Window Area {m2}, Number of Surfaces, Number of SubSurfaces, Number of Shading SubSurfaces,  Part of Total Building Area
 Zone Information, ZONE WAREHOUSE BULK A  - STORY GROUND,0.0,-44.81,-32.92,0.00,-14.37,-30.64,9.14,1,1,1,-44.81,16.08,-32.92,-28.35,0.00,18.29,18.29,5091.22,TARP,TARP,278.39,1113.56,946.53,167.03,6,1,0,Yes
 Zone Information, ZONE WAREHOUSE BULK A END_A - STORY GROUND,0.0,-49.38,-32.92,0.00,-47.10,-30.64,9.14,1,1,1,-49.38,-44.81,-32.92,-28.35,0.00,18.29,18.29,382.28,TARP,TARP,20.90,167.23,142.14,25.08,6,2,0,Yes
 Zone Information, ZONE WAREHOUSE BULK B  - STORY GROUND,0.0,-44.81,-28.35,0.00,-14.37,1.40E-014,9.14,1,1,1,-44.81,16.08,-28.35,28.35,0.00,18.29,18.29,63139.45,TARP,TARP,3452.51,0.00,0.00,0.00,6,0,0,Yes
 Zone Information, ZONE WAREHOUSE BULK B END_A - STORY GROUND,0.0,-49.38,-28.35,0.00,-47.10,1.35E-014,9.14,1,1,1,-49.38,-44.81,-28.35,28.35,0.00,18.29,18.29,4740.87,TARP,TARP,259.23,1036.94,881.40,155.54,6,1,0,Yes
 Zone Information, ZONE WAREHOUSE BULK C  - STORY GROUND,0.0,-44.81,28.35,0.00,-14.37,30.64,9.14,1,1,1,-44.81,16.08,28.35,32.92,0.00,18.29,18.29,5091.22,TARP,TARP,278.39,1113.56,946.53,167.03,6,1,0,Yes
 Zone Information, ZONE WAREHOUSE BULK C END_A - STORY GROUND,0.0,-49.38,28.35,0.00,-47.10,30.64,9.14,1,1,1,-49.38,-44.81,28.35,32.92,0.00,18.29,18.29,382.28,TARP,TARP,20.90,167.23,142.14,25.08,6,2,0,Yes
 Zone Information, ZONE WAREHOUSE FINE A  - STORY GROUND,0.0,20.92,-32.92,0.00,32.86,-30.64,9.14,1,1,1,20.92,44.81,-32.92,-28.35,0.00,18.29,18.29,1997.72,TARP,TARP,109.24,436.95,371.40,65.54,6,1,0,Yes
 Zone Information, ZONE WAREHOUSE FINE A END_B - STORY GROUND,0.0,44.81,-32.92,0.00,47.10,-30.64,9.14,1,1,1,44.81,49.38,-32.92,-28.35,0.00,18.29,18.29,382.28,TARP,TARP,20.90,167.23,142.14,25.08,6,2,0,Yes
 Zone Information, ZONE WAREHOUSE FINE B  - STORY GROUND,0.0,20.92,-28.35,0.00,32.86,1.44E-014,9.14,1,1,1,20.92,44.81,-28.35,28.35,0.00,18.29,18.29,24774.98,TARP,TARP,1354.71,0.00,0.00,0.00,6,0,0,Yes
 Zone Information, ZONE WAREHOUSE FINE B END_B - STORY GROUND,0.0,44.81,-28.35,0.00,47.10,1.33E-014,9.14,1,1,1,44.81,49.38,-28.35,28.35,0.00,18.29,18.29,4740.87,TARP,TARP,259.23,1036.94,881.40,155.54,6,1,0,Yes
 Zone Information, ZONE WAREHOUSE FINE C  - STORY GROUND,0.0,20.92,28.35,0.00,32.86,30.64,9.14,1,1,1,20.92,44.81,28.35,32.92,0.00,18.29,18.29,1997.72,TARP,TARP,109.24,436.95,371.40,65.54,6,1,0,Yes
 Zone Information, ZONE WAREHOUSE FINE C END_B - STORY GROUND,0.0,44.81,28.35,0.00,47.10,30.64,9.14,1,1,1,44.81,49.38,28.35,32.92,0.00,18.29,18.29,382.28,TARP,TARP,20.90,167.23,142.14,25.08,6,2,0,Yes
 Zone Information, ZONE WAREHOUSE OFFICE A  - STORY GROUND,0.0,16.08,-32.92,0.00,18.50,-30.64,9.14,1,1,1,16.08,20.92,-32.92,-28.35,0.00,18.29,18.29,404.65,TARP,TARP,22.13,88.51,75.23,13.28,6,1,0,Yes
 Zone Information, ZONE WAREHOUSE OFFICE B  - STORY GROUND,0.0,16.08,-28.35,0.00,18.50,1.43E-014,9.14,1,1,1,16.08,20.92,-28.35,28.35,0.00,18.29,18.29,5018.31,TARP,TARP,274.40,0.00,0.00,0.00,6,0,0,Yes
 Zone Information, ZONE WAREHOUSE OFFICE C  - STORY GROUND,0.0,16.08,28.35,0.00,18.50,30.64,9.14,1,1,1,16.08,20.92,28.35,32.92,0.00,18.29,18.29,404.65,TARP,TARP,22.13,88.51,75.23,13.28,6,1,0,Yes
! <Zone Internal Gains Nominal>,Zone Name, Floor Area {m2},# Occupants,Area per Occupant {m2/person},Occupant per Area {person/m2},Interior Lighting {W/m2},Electric Load {W/m2},Gas Load {W/m2},Other Load {W/m2},Hot Water Eq {W/m2},Steam Equipment {W/m2},Sum Loads per Area {W/m2},Outdoor Controlled Baseboard Heat
 Zone Internal Gains Nominal, ZONE WAREHOUSE BULK A  - STORY GROUND,278.39,0.0,N/A,0.000,3.767,2.558,0.000,0.000,0.000,0.000,6.326,No
 Zone Internal Gains Nominal, ZONE WAREHOUSE BULK A END_A - STORY GROUND,20.90,0.0,N/A,0.000,3.767,2.558,0.000,0.000,0.000,0.000,6.326,No
 Zone Internal Gains Nominal, ZONE WAREHOUSE BULK B  - STORY GROUND,3452.51,0.0,N/A,0.000,3.767,2.558,0.000,0.000,0.000,0.000,6.326,No
 Zone Internal Gains Nominal, ZONE WAREHOUSE BULK B END_A - STORY GROUND,259.23,0.0,N/A,0.000,3.767,2.558,0.000,0.000,0.000,0.000,6.326,No
 Zone Internal Gains Nominal, ZONE WAREHOUSE BULK C  - STORY GROUND,278.39,0.0,N/A,0.000,3.767,2.558,0.000,0.000,0.000,0.000,6.326,No
 Zone Internal Gains Nominal, ZONE WAREHOUSE BULK C END_A - STORY GROUND,20.90,0.0,N/A,0.000,3.767,2.558,0.000,0.000,0.000,0.000,6.326,No
 Zone Internal Gains Nominal, ZONE WAREHOUSE FINE A  - STORY GROUND,109.24,0.0,N/A,0.000,7.427,0.000,0.000,0.000,0.000,0.000,7.427,No
 Zone Internal Gains Nominal, ZONE WAREHOUSE FINE A END_B - STORY GROUND,20.90,0.0,N/A,0.000,7.427,0.000,0.000,0.000,0.000,0.000,7.427,No
 Zone Internal Gains Nominal, ZONE WAREHOUSE FINE B  - STORY GROUND,1354.71,0.0,N/A,0.000,7.427,0.000,0.000,0.000,0.000,0.000,7.427,No
 Zone Internal Gains Nominal, ZONE WAREHOUSE FINE B END_B - STORY GROUND,259.23,0.0,N/A,0.000,7.427,0.000,0.000,0.000,0.000,0.000,7.427,No
 Zone Internal Gains Nominal, ZONE WAREHOUSE FINE C  - STORY GROUND,109.24,0.0,N/A,0.000,7.427,0.000,0.000,0.000,0.000,0.000,7.427,No
 Zone Internal Gains Nominal, ZONE WAREHOUSE FINE C END_B - STORY GROUND,20.90,0.0,N/A,0.000,7.427,0.000,0.000,0.000,0.000,0.000,7.427,No
 Zone Internal Gains Nominal, ZONE WAREHOUSE OFFICE A  - STORY GROUND,22.13,0.5,47.400,2.110E-002,8.503,8.073,0.000,0.000,0.000,0.000,16.576,No
 Zone Internal Gains Nominal, ZONE WAREHOUSE OFFICE B  - STORY GROUND,274.40,5.8,47.400,2.110E-002,8.503,8.073,0.000,0.000,0.000,0.000,16.576,No
 Zone Internal Gains Nominal, ZONE WAREHOUSE OFFICE C  - STORY GROUND,22.13,0.5,47.400,2.110E-002,8.503,8.073,0.000,0.000,0.000,0.000,16.576,No
! <People Internal Gains Nominal>,Name,Schedule Name,Zone Name,Zone Floor Area {m2},# Zone Occupants,Number of People {},People/Floor Area {person/m2},Floor Area per person {m2/person},Fraction Radiant,Fraction Convected,Sensible Fraction Calculation,Activity level,ASHRAE 55 Warnings,Carbon Dioxide Generation Rate,Nominal Minimum Number of People,Nominal Maximum Number of People
 People Internal Gains Nominal, WAREHOUSE OFFICE C  - STORY GROUND WAREHOUSE OFFICE PEOPLE,WAREHOUSE BLDG_OCC_SCH,ZONE WAREHOUSE OFFICE C  - STORY GROUND,22.13,0.5,0.5,2.110E-002,47.400,0.300,0.700,AutoCalculate,WAREHOUSE OFFICE ACTIVITY SCHEDULE,No,3.8200E-008,0,0
 People Internal Gains Nominal, WAREHOUSE OFFICE A  - STORY GROUND WAREHOUSE OFFICE PEOPLE,WAREHOUSE BLDG_OCC_SCH,ZONE WAREHOUSE OFFICE A  - STORY GROUND,22.13,0.5,0.5,2.110E-002,47.400,0.300,0.700,AutoCalculate,WAREHOUSE OFFICE ACTIVITY SCHEDULE,No,3.8200E-008,0,0
 People Internal Gains Nominal, WAREHOUSE OFFICE B  - STORY GROUND WAREHOUSE OFFICE PEOPLE,WAREHOUSE BLDG_OCC_SCH,ZONE WAREHOUSE OFFICE B  - STORY GROUND,274.40,5.8,5.8,2.110E-002,47.400,0.300,0.700,AutoCalculate,WAREHOUSE OFFICE ACTIVITY SCHEDULE,No,3.8200E-008,0,6
! <Lights Internal Gains Nominal>,Name,Schedule Name,Zone Name,Zone Floor Area {m2},# Zone Occupants,Lighting Level {W},Lights/Floor Area {W/m2},Lights per person {W/person},Fraction Return Air,Fraction Radiant,Fraction Short Wave,Fraction Convected,Fraction Replaceable,End-Use Category,Nominal Minimum Lighting Level {W},Nominal Maximum Lighting Level {W}
 Lights Internal Gains Nominal, WAREHOUSE BULK A END_A - STORY GROUND WAREHOUSE BULK LIGHTS,WAREHOUSE BLDG_LIGHT_STORAGE_SCH,ZONE WAREHOUSE BULK A END_A - STORY GROUND,20.90,0.0,78.750,3.767,N/A,0.000,0.420,0.180,0.400,1.000,General,0.000,78.750
 Lights Internal Gains Nominal, WAREHOUSE BULK B END_A - STORY GROUND WAREHOUSE BULK LIGHTS,WAREHOUSE BLDG_LIGHT_STORAGE_SCH,ZONE WAREHOUSE BULK B END_A - STORY GROUND,259.23,0.0,976.630,3.767,N/A,0.000,0.420,0.180,0.400,1.000,General,0.000,976.630
 Lights Internal Gains Nominal, WAREHOUSE BULK C END_A - STORY GROUND WAREHOUSE BULK LIGHTS,WAREHOUSE BLDG_LIGHT_STORAGE_SCH,ZONE WAREHOUSE BULK C END_A - STORY GROUND,20.90,0.0,78.750,3.767,N/A,0.000,0.420,0.180,0.400,1.000,General,0.000,78.750
 Lights Internal Gains Nominal, WAREHOUSE BULK A  - STORY GROUND WAREHOUSE BULK LIGHTS,WAREHOUSE BLDG_LIGHT_STORAGE_SCH,ZONE WAREHOUSE BULK A  - STORY GROUND,278.39,0.0,1048.802,3.767,N/A,0.000,0.420,0.180,0.400,1.000,General,0.000,1048.802
 Lights Internal Gains Nominal, WAREHOUSE BULK B  - STORY GROUND WAREHOUSE BULK LIGHTS,WAREHOUSE BLDG_LIGHT_STORAGE_SCH,ZONE WAREHOUSE BULK B  - STORY GROUND,3452.51,0.0,13006.867,3.767,N/A,0.000,0.420,0.180,0.400,1.000,General,0.000,13006.867
 Lights Internal Gains Nominal, WAREHOUSE BULK C  - STORY GROUND WAREHOUSE BULK LIGHTS,WAREHOUSE BLDG_LIGHT_STORAGE_SCH,ZONE WAREHOUSE BULK C  - STORY GROUND,278.39,0.0,1048.802,3.767,N/A,0.000,0.420,0.180,0.400,1.000,General,0.000,1048.802
 Lights Internal Gains Nominal, WAREHOUSE FINE C END_B - STORY GROUND WAREHOUSE FINE LIGHTS,WAREHOUSE BLDG_LIGHT_STORAGE_SCH,ZONE WAREHOUSE FINE C END_B - STORY GROUND,20.90,0.0,155.250,7.427,N/A,0.000,0.420,0.180,0.400,1.000,General,0.000,155.250
 Lights Internal Gains Nominal, WAREHOUSE FINE A  - STORY GROUND WAREHOUSE FINE LIGHTS,WAREHOUSE BLDG_LIGHT_STORAGE_SCH,ZONE WAREHOUSE FINE A  - STORY GROUND,109.24,0.0,811.310,7.427,N/A,0.000,0.420,0.180,0.400,1.000,General,0.000,811.310
 Lights Internal Gains Nominal, WAREHOUSE FINE B  - STORY GROUND WAREHOUSE FINE LIGHTS,WAREHOUSE BLDG_LIGHT_STORAGE_SCH,ZONE WAREHOUSE FINE B  - STORY GROUND,1354.71,0.0,10061.584,7.427,N/A,0.000,0.420,0.180,0.400,1.000,General,0.000,10061.584
 Lights Internal Gains Nominal, WAREHOUSE FINE A END_B - STORY GROUND WAREHOUSE FINE LIGHTS,WAREHOUSE BLDG_LIGHT_STORAGE_SCH,ZONE WAREHOUSE FINE A END_B - STORY GROUND,20.90,0.0,155.250,7.427,N/A,0.000,0.420,0.180,0.400,1.000,General,0.000,155.250
 Lights Internal Gains Nominal, WAREHOUSE FINE B END_B - STORY GROUND WAREHOUSE FINE LIGHTS,WAREHOUSE BLDG_LIGHT_STORAGE_SCH,ZONE WAREHOUSE FINE B END_B - STORY GROUND,259.23,0.0,1925.356,7.427,N/A,0.000,0.420,0.180,0.400,1.000,General,0.000,1925.356
 Lights Internal Gains Nominal, WAREHOUSE FINE C  - STORY GROUND WAREHOUSE FINE LIGHTS,WAREHOUSE BLDG_LIGHT_STORAGE_SCH,ZONE WAREHOUSE FINE C  - STORY GROUND,109.24,0.0,811.310,7.427,N/A,0.000,0.420,0.180,0.400,1.000,General,0.000,811.310
 Lights Internal Gains Nominal, WAREHOUSE OFFICE C  - STORY GROUND WAREHOUSE OFFICE LIGHTS,WAREHOUSE BLDG_LIGHT_OFFICE_SCH_2013,ZONE WAREHOUSE OFFICE C  - STORY GROUND,22.13,0.5,188.152,8.503,403.061,0.000,0.370,0.180,0.450,1.000,General,0.000,188.152
 Lights Internal Gains Nominal, WAREHOUSE OFFICE A  - STORY GROUND WAREHOUSE OFFICE LIGHTS,WAREHOUSE BLDG_LIGHT_OFFICE_SCH_2013,ZONE WAREHOUSE OFFICE A  - STORY GROUND,22.13,0.5,188.152,8.503,403.061,0.000,0.370,0.180,0.450,1.000,General,0.000,188.152
 Lights Internal Gains Nominal, WAREHOUSE OFFICE B  - STORY GROUND WAREHOUSE OFFICE LIGHTS,WAREHOUSE BLDG_LIGHT_OFFICE_SCH_2013,ZONE WAREHOUSE OFFICE B  - STORY GROUND,274.40,5.8,2333.396,8.503,403.061,0.000,0.370,0.180,0.450,1.000,General,0.000,2333.396
! <ElectricEquipment Internal Gains Nominal>,Name,Schedule Name,Zone Name,Zone Floor Area {m2},# Zone Occupants,Equipment Level {W},Equipment/Floor Area {W/m2},Equipment per person {W/person},Fraction Latent,Fraction Radiant,Fraction Lost,Fraction Convected,End-Use SubCategory,Nominal Minimum Equipment Level {W},Nominal Maximum Equipment Level {W}
 ElectricEquipment Internal Gains Nominal, WAREHOUSE BULK A END_A - STORY GROUND WAREHOUSE BULK ELEC EQUIP,WAREHOUSE BLDG EQUIP,ZONE WAREHOUSE BULK A END_A - STORY GROUND,20.90,0.0,53.479,2.558,N/A,0.000,0.500,0.000,0.500,General,0.000,53.479
 ElectricEquipment Internal Gains Nominal, WAREHOUSE BULK B END_A - STORY GROUND WAREHOUSE BULK ELEC EQUIP,WAREHOUSE BLDG EQUIP,ZONE WAREHOUSE BULK B END_A - STORY GROUND,259.23,0.0,663.228,2.558,N/A,0.000,0.500,0.000,0.500,General,0.000,663.228
 ElectricEquipment Internal Gains Nominal, WAREHOUSE BULK C END_A - STORY GROUND WAREHOUSE BULK ELEC EQUIP,WAREHOUSE BLDG EQUIP,ZONE WAREHOUSE BULK C END_A - STORY GROUND,20.90,0.0,53.479,2.558,N/A,0.000,0.500,0.000,0.500,General,0.000,53.479
 ElectricEquipment Internal Gains Nominal, WAREHOUSE BULK A  - STORY GROUND WAREHOUSE BULK ELEC EQUIP,WAREHOUSE BLDG EQUIP,ZONE WAREHOUSE BULK A  - STORY GROUND,278.39,0.0,712.240,2.558,N/A,0.000,0.500,0.000,0.500,General,0.000,712.240
 ElectricEquipment Internal Gains Nominal, WAREHOUSE BULK B  - STORY GROUND WAREHOUSE BULK ELEC EQUIP,WAREHOUSE BLDG EQUIP,ZONE WAREHOUSE BULK B  - STORY GROUND,3452.51,0.0,8832.950,2.558,N/A,0.000,0.500,0.000,0.500,General,0.000,8832.950
 ElectricEquipment Internal Gains Nominal, WAREHOUSE BULK C  - STORY GROUND WAREHOUSE BULK ELEC EQUIP,WAREHOUSE BLDG EQUIP,ZONE WAREHOUSE BULK C  - STORY GROUND,278.39,0.0,712.240,2.558,N/A,0.000,0.500,0.000,0.500,General,0.000,712.240
 ElectricEquipment Internal Gains Nominal, WAREHOUSE OFFICE C  - STORY GROUND WAREHOUSE OFFICE ELEC EQUIP,WAREHOUSE OFFICE_PLUG_SCH_2013,ZONE WAREHOUSE OFFICE C  - STORY GROUND,22.13,0.5,178.625,8.073,382.653,0.000,0.500,0.000,0.500,General,0.000,178.625
 ElectricEquipment Internal Gains Nominal, WAREHOUSE OFFICE A  - STORY GROUND WAREHOUSE OFFICE ELEC EQUIP,WAREHOUSE OFFICE_PLUG_SCH_2013,ZONE WAREHOUSE OFFICE A  - STORY GROUND,22.13,0.5,178.625,8.073,382.653,0.000,0.500,0.000,0.500,General,0.000,178.625
 ElectricEquipment Internal Gains Nominal, WAREHOUSE OFFICE B  - STORY GROUND WAREHOUSE OFFICE ELEC EQUIP,WAREHOUSE OFFICE_PLUG_SCH_2013,ZONE WAREHOUSE OFFICE B  - STORY GROUND,274.40,5.8,2215.249,8.073,382.653,0.000,0.500,0.000,0.500,General,0.000,2215.249
! <Shadowing/Sun Position Calculations Annual Simulations>, Shading Calculation Method, Shading Calculation Update Frequency Method, Shading Calculation Update Frequency {days}, Maximum Figures in Shadow Overlap Calculations {}, Polygon Clipping Algorithm, Pixel Counting Resolution, Sky Diffuse Modeling Algorithm, Output External Shading Calculation Results, Disable Self-Shading Within Shading Zone Groups, Disable Self-Shading From Shading Zone Groups to Other Zones
Shadowing/Sun Position Calculations Annual Simulations,PolygonClipping,Periodic,30,15000,SutherlandHodgman,512,SimpleSkyDiffuseModeling,No,No,No
! <Enclosure/Window Adjacency Daylighting Counts>, Enclosure Name, Number of Exterior Windows, Number of Exterior Windows in Adjacent Enclosures
Enclosure/Window Adjacency Daylighting Counts, WAREHOUSE BULK A  - STORY GROUND,1,0
Enclosure/Window Adjacency Daylighting Counts, WAREHOUSE BULK B END_A - STORY GROUND,1,0
Enclosure/Window Adjacency Daylighting Counts, WAREHOUSE BULK C  - STORY GROUND,1,0
Enclosure/Window Adjacency Daylighting Counts, WAREHOUSE FINE A  - STORY GROUND,1,0
Enclosure/Window Adjacency Daylighting Counts, WAREHOUSE FINE B END_B - STORY GROUND,1,0
Enclosure/Window Adjacency Daylighting Counts, WAREHOUSE FINE C  - STORY GROUND,1,0
! <Enclosure/Window Adjacency Daylighting Matrix>, Enclosure Name, Number of Adjacent Enclosures with Windows,Adjacent Enclosure Names - 1st 100 (max)
Enclosure/Window Adjacency Daylighting Matrix, WAREHOUSE BULK A  - STORY GROUND,0
Enclosure/Window Adjacency Daylighting Matrix, WAREHOUSE BULK B END_A - STORY GROUND,0
Enclosure/Window Adjacency Daylighting Matrix, WAREHOUSE BULK C  - STORY GROUND,0
Enclosure/Window Adjacency Daylighting Matrix, WAREHOUSE FINE A  - STORY GROUND,0
Enclosure/Window Adjacency Daylighting Matrix, WAREHOUSE FINE B END_B - STORY GROUND,0
Enclosure/Window Adjacency Daylighting Matrix, WAREHOUSE FINE C  - STORY GROUND,0
! <Water Heater Information>,Type,Name,Volume {m3},Maximum Capacity {W},Standard Rated Recovery Efficiency, Standard Rated Energy Factor
! <ZoneInfiltration Airflow Stats Nominal>,Name,Schedule Name,Zone Name, Zone Floor Area {m2}, # Zone Occupants,Design Volume Flow Rate {m3/s},Volume Flow Rate/Floor Area {m3/s-m2},Volume Flow Rate/Exterior Surface Area {m3/s-m2},ACH - Air Changes per Hour,Equation A - Constant Term Coefficient {},Equation B - Temperature Term Coefficient {1/C},Equation C - Velocity Term Coefficient {s/m}, Equation D - Velocity Squared Term Coefficient {s2/m2}
 ZoneInfiltration Airflow Stats Nominal, WAREHOUSE BULK A  - STORY GROUND INFILTRATION,ALWAYS ON DISCRETE,ZONE WAREHOUSE BULK A  - STORY GROUND,278.39,0.0,0.634,2.278E-003,4.557E-004,0.448,0.000,0.000,0.224,0.000
 ZoneInfiltration Airflow Stats Nominal, WAREHOUSE BULK A END_A - STORY GROUND INFILTRATION,ALWAYS ON DISCRETE,ZONE WAREHOUSE BULK A END_A - STORY GROUND,20.90,0.0,9.525E-002,4.557E-003,5.063E-004,0.897,0.000,0.000,0.224,0.000
 ZoneInfiltration Airflow Stats Nominal, WAREHOUSE BULK B END_A - STORY GROUND INFILTRATION,ALWAYS ON DISCRETE,ZONE WAREHOUSE BULK B END_A - STORY GROUND,259.23,0.0,0.591,2.278E-003,4.557E-004,0.448,0.000,0.000,0.224,0.000
 ZoneInfiltration Airflow Stats Nominal, WAREHOUSE BULK C  - STORY GROUND INFILTRATION,ALWAYS ON DISCRETE,ZONE WAREHOUSE BULK C  - STORY GROUND,278.39,0.0,0.634,2.278E-003,4.557E-004,0.448,0.000,0.000,0.224,0.000
 ZoneInfiltration Airflow Stats Nominal, WAREHOUSE BULK C END_A - STORY GROUND INFILTRATION,ALWAYS ON DISCRETE,ZONE WAREHOUSE BULK C END_A - STORY GROUND,20.90,0.0,9.525E-002,4.557E-003,5.063E-004,0.897,0.000,0.000,0.224,0.000
 ZoneInfiltration Airflow Stats Nominal, WAREHOUSE FINE A  - STORY GROUND INFILTRATION,ALWAYS ON DISCRETE,ZONE WAREHOUSE FINE A  - STORY GROUND,109.24,0.0,0.249,2.278E-003,4.557E-004,0.448,0.000,0.000,0.224,0.000
 ZoneInfiltration Airflow Stats Nominal, WAREHOUSE FINE A END_B - STORY GROUND INFILTRATION,ALWAYS ON DISCRETE,ZONE WAREHOUSE FINE A END_B - STORY GROUND,20.90,0.0,9.525E-002,4.557E-003,5.063E-004,0.897,0.000,0.000,0.224,0.000
 ZoneInfiltration Airflow Stats Nominal, WAREHOUSE FINE B END_B - STORY GROUND INFILTRATION,ALWAYS ON DISCRETE,ZONE WAREHOUSE FINE B END_B - STORY GROUND,259.23,0.0,0.591,2.278E-003,4.557E-004,0.448,0.000,0.000,0.224,0.000
 ZoneInfiltration Airflow Stats Nominal, WAREHOUSE FINE C  - STORY GROUND INFILTRATION,ALWAYS ON DISCRETE,ZONE WAREHOUSE FINE C  - STORY GROUND,109.24,0.0,0.249,2.278E-003,4.557E-004,0.448,0.000,0.000,0.224,0.000
 ZoneInfiltration Airflow Stats Nominal, WAREHOUSE FINE C END_B - STORY GROUND INFILTRATION,ALWAYS ON DISCRETE,ZONE WAREHOUSE FINE C END_B - STORY GROUND,20.90,0.0,9.525E-002,4.557E-003,5.063E-004,0.897,0.000,0.000,0.224,0.000
 ZoneInfiltration Airflow Stats Nominal, WAREHOUSE OFFICE A  - STORY GROUND INFILTRATION,ALWAYS ON DISCRETE,ZONE WAREHOUSE OFFICE A  - STORY GROUND,22.13,0.5,5.041E-002,2.278E-003,4.557E-004,0.448,0.000,0.000,0.224,0.000
 ZoneInfiltration Airflow Stats Nominal, WAREHOUSE OFFICE C  - STORY GROUND INFILTRATION,ALWAYS ON DISCRETE,ZONE WAREHOUSE OFFICE C  - STORY GROUND,22.13,0.5,5.041E-002,2.278E-003,4.557E-004,0.448,0.000,0.000,0.224,0.000
! <AirFlow Model>, Simple
 AirFlow Model, Simple
! <RoomAir Model>, Zone Name, Mixing/Mundt/UCSDDV/UCSDCV/UCSDUFI/UCSDUFE/User Defined
RoomAir Model,ZONE WAREHOUSE BULK A  - STORY GROUND,Mixing/Well-Stirred
RoomAir Model,ZONE WAREHOUSE BULK A END_A - STORY GROUND,Mixing/Well-Stirred
RoomAir Model,ZONE WAREHOUSE BULK B  - STORY GROUND,Mixing/Well-Stirred
RoomAir Model,ZONE WAREHOUSE BULK B END_A - STORY GROUND,Mixing/Well-Stirred
RoomAir Model,ZONE WAREHOUSE BULK C  - STORY GROUND,Mixing/Well-Stirred
RoomAir Model,ZONE WAREHOUSE BULK C END_A - STORY GROUND,Mixing/Well-Stirred
RoomAir Model,ZONE WAREHOUSE FINE A  - STORY GROUND,Mixing/Well-Stirred
RoomAir Model,ZONE WAREHOUSE FINE A END_B - STORY GROUND,Mixing/Well-Stirred
RoomAir Model,ZONE WAREHOUSE FINE B  - STORY GROUND,Mixing/Well-Stirred
RoomAir Model,ZONE WAREHOUSE FINE B END_B - STORY GROUND,Mixing/Well-Stirred
RoomAir Model,ZONE WAREHOUSE FINE C  - STORY GROUND,Mixing/Well-Stirred
RoomAir Model,ZONE WAREHOUSE FINE C END_B - STORY GROUND,Mixing/Well-Stirred
RoomAir Model,ZONE WAREHOUSE OFFICE A  - STORY GROUND,Mixing/Well-Stirred
RoomAir Model,ZONE WAREHOUSE OFFICE B  - STORY GROUND,Mixing/Well-Stirred
RoomAir Model,ZONE WAREHOUSE OFFICE C  - STORY GROUND,Mixing/Well-Stirred
! <AirflowNetwork Model:Control>, No Multizone or Distribution/Multizone with Distribution/Multizone without Distribution/Multizone with Distribution only during Fan Operation
AirflowNetwork Model:Control,NoMultizoneOrDistribution
! <Zone Volume Capacitance Multiplier>, Sensible Heat Capacity Multiplier, Moisture Capacity Multiplier, Carbon Dioxide Capacity Multiplier, Generic Contaminant Capacity Multiplier
Zone Volume Capacitance Multiplier,   1.000 ,   1.000,   1.000,   1.000
! <Load Timesteps in Zone Design Calculation Averaging Window>, Value
 Load Timesteps in Zone Design Calculation Averaging Window,    6
! <Heating Sizing Factor Information>, Sizing Factor ID, Value
 Heating Sizing Factor Information, Global,   1.2500    
 Heating Sizing Factor Information, Zone ZONE WAREHOUSE BULK A  - STORY GROUND,   1.2500    
 Heating Sizing Factor Information, Zone ZONE WAREHOUSE BULK A END_A - STORY GROUND,   1.2500    
 Heating Sizing Factor Information, Zone ZONE WAREHOUSE BULK B  - STORY GROUND,   1.2500    
 Heating Sizing Factor Information, Zone ZONE WAREHOUSE BULK B END_A - STORY GROUND,   1.2500    
 Heating Sizing Factor Information, Zone ZONE WAREHOUSE BULK C  - STORY GROUND,   1.2500    
 Heating Sizing Factor Information, Zone ZONE WAREHOUSE BULK C END_A - STORY GROUND,   1.2500    
 Heating Sizing Factor Information, Zone ZONE WAREHOUSE FINE A  - STORY GROUND,   1.2500    
 Heating Sizing Factor Information, Zone ZONE WAREHOUSE FINE A END_B - STORY GROUND,   1.2500    
 Heating Sizing Factor Information, Zone ZONE WAREHOUSE FINE B  - STORY GROUND,   1.2500    
 Heating Sizing Factor Information, Zone ZONE WAREHOUSE FINE B END_B - STORY GROUND,   1.2500    
 Heating Sizing Factor Information, Zone ZONE WAREHOUSE FINE C  - STORY GROUND,   1.2500    
 Heating Sizing Factor Information, Zone ZONE WAREHOUSE FINE C END_B - STORY GROUND,   1.2500    
 Heating Sizing Factor Information, Zone ZONE WAREHOUSE OFFICE A  - STORY GROUND,   1.2500    
 Heating Sizing Factor Information, Zone ZONE WAREHOUSE OFFICE B  - STORY GROUND,   1.2500    
 Heating Sizing Factor Information, Zone ZONE WAREHOUSE OFFICE C  - STORY GROUND,   1.2500    
! <Cooling Sizing Factor Information>, Sizing Factor ID, Value
 Cooling Sizing Factor Information, Global,   1.1500    
 Cooling Sizing Factor Information, Zone ZONE WAREHOUSE BULK A  - STORY GROUND,   1.1500    
 Cooling Sizing Factor Information, Zone ZONE WAREHOUSE BULK A END_A - STORY GROUND,   1.1500    
 Cooling Sizing Factor Information, Zone ZONE WAREHOUSE BULK B  - STORY GROUND,   1.1500    
 Cooling Sizing Factor Information, Zone ZONE WAREHOUSE BULK B END_A - STORY GROUND,   1.1500    
 Cooling Sizing Factor Information, Zone ZONE WAREHOUSE BULK C  - STORY GROUND,   1.1500    
 Cooling Sizing Factor Information, Zone ZONE WAREHOUSE BULK C END_A - STORY GROUND,   1.1500    
 Cooling Sizing Factor Information, Zone ZONE WAREHOUSE FINE A  - STORY GROUND,   1.1500    
 Cooling Sizing Factor Information, Zone ZONE WAREHOUSE FINE A END_B - STORY GROUND,   1.1500    
 Cooling Sizing Factor Information, Zone ZONE WAREHOUSE FINE B  - STORY GROUND,   1.1500    
 Cooling Sizing Factor Information, Zone ZONE WAREHOUSE FINE B END_B - STORY GROUND,   1.1500    
 Cooling Sizing Factor Information, Zone ZONE WAREHOUSE FINE C  - STORY GROUND,   1.1500    
 Cooling Sizing Factor Information, Zone ZONE WAREHOUSE FINE C END_B - STORY GROUND,   1.1500    
 Cooling Sizing Factor Information, Zone ZONE WAREHOUSE OFFICE A  - STORY GROUND,   1.1500    
 Cooling Sizing Factor Information, Zone ZONE WAREHOUSE OFFICE B  - STORY GROUND,   1.1500    
 Cooling Sizing Factor Information, Zone ZONE WAREHOUSE OFFICE C  - STORY GROUND,   1.1500    
! <Sky Daylight Factors>, Sky Type, MonthAndDay, Daylighting Control Name, Enclosure Name, Window Name, Reference Point, Daylight Factor
 Sky Daylight Factors,Clear Sky,08/21,ZONE WAREHOUSE BULK A  - STORY GROUND DAYLIGHTINGCONTROLS,WAREHOUSE BULK A  - STORY GROUND,SUB SURFACE 11,WAREHOUSE BULK A  - STORY GROUND DAYLT SENSOR 1,0.1376
 Sky Daylight Factors,Clear Sky,08/21,ZONE WAREHOUSE BULK A  - STORY GROUND DAYLIGHTINGCONTROLS,WAREHOUSE BULK A  - STORY GROUND,SUB SURFACE 11,WAREHOUSE BULK A  - STORY GROUND DAYLT SENSOR 2,1.4161E-002
 Sky Daylight Factors,Clear Turbid Sky,08/21,ZONE WAREHOUSE BULK A  - STORY GROUND DAYLIGHTINGCONTROLS,WAREHOUSE BULK A  - STORY GROUND,SUB SURFACE 11,WAREHOUSE BULK A  - STORY GROUND DAYLT SENSOR 1,0.1492
 Sky Daylight Factors,Clear Turbid Sky,08/21,ZONE WAREHOUSE BULK A  - STORY GROUND DAYLIGHTINGCONTROLS,WAREHOUSE BULK A  - STORY GROUND,SUB SURFACE 11,WAREHOUSE BULK A  - STORY GROUND DAYLT SENSOR 2,1.4837E-002
 Sky Daylight Factors,Intermediate Sky,08/21,ZONE WAREHOUSE BULK A  - STORY GROUND DAYLIGHTINGCONTROLS,WAREHOUSE BULK A  - STORY GROUND,SUB SURFACE 11,WAREHOUSE BULK A  - STORY GROUND DAYLT SENSOR 1,0.1126
 Sky Daylight Factors,Intermediate Sky,08/21,ZONE WAREHOUSE BULK A  - STORY GROUND DAYLIGHTINGCONTROLS,WAREHOUSE BULK A  - STORY GROUND,SUB SURFACE 11,WAREHOUSE BULK A  - STORY GROUND DAYLT SENSOR 2,1.1446E-002
 Sky Daylight Factors,Overcast Sky,08/21,ZONE WAREHOUSE BULK A  - STORY GROUND DAYLIGHTINGCONTROLS,WAREHOUSE BULK A  - STORY GROUND,SUB SURFACE 11,WAREHOUSE BULK A  - STORY GROUND DAYLT SENSOR 1,5.3090E-002
 Sky Daylight Factors,Overcast Sky,08/21,ZONE WAREHOUSE BULK A  - STORY GROUND DAYLIGHTINGCONTROLS,WAREHOUSE BULK A  - STORY GROUND,SUB SURFACE 11,WAREHOUSE BULK A  - STORY GROUND DAYLT SENSOR 2,6.3336E-003
 Sky Daylight Factors,Clear Sky,08/21,ZONE WAREHOUSE BULK B END_A - STORY GROUND DAYLIGHTINGCONTROLS,WAREHOUSE BULK B END_A - STORY GROUND,SUB SURFACE 12,WAREHOUSE BULK B END_A - STORY GROUND DAYLT SENSOR 1,4.7985E-002
 Sky Daylight Factors,Clear Sky,08/21,ZONE WAREHOUSE BULK B END_A - STORY GROUND DAYLIGHTINGCONTROLS,WAREHOUSE BULK B END_A - STORY GROUND,SUB SURFACE 12,WAREHOUSE BULK B END_A - STORY GROUND DAYLT SENSOR 2,6.5863E-003
 Sky Daylight Factors,Clear Turbid Sky,08/21,ZONE WAREHOUSE BULK B END_A - STORY GROUND DAYLIGHTINGCONTROLS,WAREHOUSE BULK B END_A - STORY GROUND,SUB SURFACE 12,WAREHOUSE BULK B END_A - STORY GROUND DAYLT SENSOR 1,4.0205E-002
 Sky Daylight Factors,Clear Turbid Sky,08/21,ZONE WAREHOUSE BULK B END_A - STORY GROUND DAYLIGHTINGCONTROLS,WAREHOUSE BULK B END_A - STORY GROUND,SUB SURFACE 12,WAREHOUSE BULK B END_A - STORY GROUND DAYLT SENSOR 2,5.7094E-003
 Sky Daylight Factors,Intermediate Sky,08/21,ZONE WAREHOUSE BULK B END_A - STORY GROUND DAYLIGHTINGCONTROLS,WAREHOUSE BULK B END_A - STORY GROUND,SUB SURFACE 12,WAREHOUSE BULK B END_A - STORY GROUND DAYLT SENSOR 1,4.3724E-002
 Sky Daylight Factors,Intermediate Sky,08/21,ZONE WAREHOUSE BULK B END_A - STORY GROUND DAYLIGHTINGCONTROLS,WAREHOUSE BULK B END_A - STORY GROUND,SUB SURFACE 12,WAREHOUSE BULK B END_A - STORY GROUND DAYLT SENSOR 2,5.5704E-003
 Sky Daylight Factors,Overcast Sky,08/21,ZONE WAREHOUSE BULK B END_A - STORY GROUND DAYLIGHTINGCONTROLS,WAREHOUSE BULK B END_A - STORY GROUND,SUB SURFACE 12,WAREHOUSE BULK B END_A - STORY GROUND DAYLT SENSOR 1,5.3088E-002
 Sky Daylight Factors,Overcast Sky,08/21,ZONE WAREHOUSE BULK B END_A - STORY GROUND DAYLIGHTINGCONTROLS,WAREHOUSE BULK B END_A - STORY GROUND,SUB SURFACE 12,WAREHOUSE BULK B END_A - STORY GROUND DAYLT SENSOR 2,6.3142E-003
 Sky Daylight Factors,Clear Sky,08/21,ZONE WAREHOUSE BULK C  - STORY GROUND DAYLIGHTINGCONTROLS,WAREHOUSE BULK C  - STORY GROUND,SUB SURFACE 1,WAREHOUSE BULK C  - STORY GROUND DAYLT SENSOR 1,4.2432E-002
 Sky Daylight Factors,Clear Sky,08/21,ZONE WAREHOUSE BULK C  - STORY GROUND DAYLIGHTINGCONTROLS,WAREHOUSE BULK C  - STORY GROUND,SUB SURFACE 1,WAREHOUSE BULK C  - STORY GROUND DAYLT SENSOR 2,6.1382E-003
 Sky Daylight Factors,Clear Turbid Sky,08/21,ZONE WAREHOUSE BULK C  - STORY GROUND DAYLIGHTINGCONTROLS,WAREHOUSE BULK C  - STORY GROUND,SUB SURFACE 1,WAREHOUSE BULK C  - STORY GROUND DAYLT SENSOR 1,3.3368E-002
 Sky Daylight Factors,Clear Turbid Sky,08/21,ZONE WAREHOUSE BULK C  - STORY GROUND DAYLIGHTINGCONTROLS,WAREHOUSE BULK C  - STORY GROUND,SUB SURFACE 1,WAREHOUSE BULK C  - STORY GROUND DAYLT SENSOR 2,5.0886E-003
 Sky Daylight Factors,Intermediate Sky,08/21,ZONE WAREHOUSE BULK C  - STORY GROUND DAYLIGHTINGCONTROLS,WAREHOUSE BULK C  - STORY GROUND,SUB SURFACE 1,WAREHOUSE BULK C  - STORY GROUND DAYLT SENSOR 1,3.1501E-002
 Sky Daylight Factors,Intermediate Sky,08/21,ZONE WAREHOUSE BULK C  - STORY GROUND DAYLIGHTINGCONTROLS,WAREHOUSE BULK C  - STORY GROUND,SUB SURFACE 1,WAREHOUSE BULK C  - STORY GROUND DAYLT SENSOR 2,4.4316E-003
 Sky Daylight Factors,Overcast Sky,08/21,ZONE WAREHOUSE BULK C  - STORY GROUND DAYLIGHTINGCONTROLS,WAREHOUSE BULK C  - STORY GROUND,SUB SURFACE 1,WAREHOUSE BULK C  - STORY GROUND DAYLT SENSOR 1,5.3090E-002
 Sky Daylight Factors,Overcast Sky,08/21,ZONE WAREHOUSE BULK C  - STORY GROUND DAYLIGHTINGCONTROLS,WAREHOUSE BULK C  - STORY GROUND,SUB SURFACE 1,WAREHOUSE BULK C  - STORY GROUND DAYLT SENSOR 2,6.3336E-003
 Sky Daylight Factors,Clear Sky,08/21,ZONE WAREHOUSE FINE A  - STORY GROUND DAYLIGHTINGCONTROLS,WAREHOUSE FINE A  - STORY GROUND,SUB SURFACE 4,WAREHOUSE FINE A  - STORY GROUND DAYLT SENSOR 1,0.1345
 Sky Daylight Factors,Clear Sky,08/21,ZONE WAREHOUSE FINE A  - STORY GROUND DAYLIGHTINGCONTROLS,WAREHOUSE FINE A  - STORY GROUND,SUB SURFACE 4,WAREHOUSE FINE A  - STORY GROUND DAYLT SENSOR 2,1.3322E-002
 Sky Daylight Factors,Clear Turbid Sky,08/21,ZONE WAREHOUSE FINE A  - STORY GROUND DAYLIGHTINGCONTROLS,WAREHOUSE FINE A  - STORY GROUND,SUB SURFACE 4,WAREHOUSE FINE A  - STORY GROUND DAYLT SENSOR 1,0.1455
 Sky Daylight Factors,Clear Turbid Sky,08/21,ZONE WAREHOUSE FINE A  - STORY GROUND DAYLIGHTINGCONTROLS,WAREHOUSE FINE A  - STORY GROUND,SUB SURFACE 4,WAREHOUSE FINE A  - STORY GROUND DAYLT SENSOR 2,1.3959E-002
 Sky Daylight Factors,Intermediate Sky,08/21,ZONE WAREHOUSE FINE A  - STORY GROUND DAYLIGHTINGCONTROLS,WAREHOUSE FINE A  - STORY GROUND,SUB SURFACE 4,WAREHOUSE FINE A  - STORY GROUND DAYLT SENSOR 1,0.1113
 Sky Daylight Factors,Intermediate Sky,08/21,ZONE WAREHOUSE FINE A  - STORY GROUND DAYLIGHTINGCONTROLS,WAREHOUSE FINE A  - STORY GROUND,SUB SURFACE 4,WAREHOUSE FINE A  - STORY GROUND DAYLT SENSOR 2,1.0765E-002
 Sky Daylight Factors,Overcast Sky,08/21,ZONE WAREHOUSE FINE A  - STORY GROUND DAYLIGHTINGCONTROLS,WAREHOUSE FINE A  - STORY GROUND,SUB SURFACE 4,WAREHOUSE FINE A  - STORY GROUND DAYLT SENSOR 1,5.2716E-002
 Sky Daylight Factors,Overcast Sky,08/21,ZONE WAREHOUSE FINE A  - STORY GROUND DAYLIGHTINGCONTROLS,WAREHOUSE FINE A  - STORY GROUND,SUB SURFACE 4,WAREHOUSE FINE A  - STORY GROUND DAYLT SENSOR 2,5.9496E-003
 Sky Daylight Factors,Clear Sky,08/21,ZONE WAREHOUSE FINE B END_B - STORY GROUND DAYLIGHTINGCONTROLS,WAREHOUSE FINE B END_B - STORY GROUND,SUB SURFACE 7,WAREHOUSE FINE B END_B - STORY GROUND DAYLT SENSOR 1,8.3306E-002
 Sky Daylight Factors,Clear Sky,08/21,ZONE WAREHOUSE FINE B END_B - STORY GROUND DAYLIGHTINGCONTROLS,WAREHOUSE FINE B END_B - STORY GROUND,SUB SURFACE 7,WAREHOUSE FINE B END_B - STORY GROUND DAYLT SENSOR 2,9.8813E-003
 Sky Daylight Factors,Clear Turbid Sky,08/21,ZONE WAREHOUSE FINE B END_B - STORY GROUND DAYLIGHTINGCONTROLS,WAREHOUSE FINE B END_B - STORY GROUND,SUB SURFACE 7,WAREHOUSE FINE B END_B - STORY GROUND DAYLT SENSOR 1,8.2618E-002
 Sky Daylight Factors,Clear Turbid Sky,08/21,ZONE WAREHOUSE FINE B END_B - STORY GROUND DAYLIGHTINGCONTROLS,WAREHOUSE FINE B END_B - STORY GROUND,SUB SURFACE 7,WAREHOUSE FINE B END_B - STORY GROUND DAYLT SENSOR 2,9.6855E-003
 Sky Daylight Factors,Intermediate Sky,08/21,ZONE WAREHOUSE FINE B END_B - STORY GROUND DAYLIGHTINGCONTROLS,WAREHOUSE FINE B END_B - STORY GROUND,SUB SURFACE 7,WAREHOUSE FINE B END_B - STORY GROUND DAYLT SENSOR 1,7.7631E-002
 Sky Daylight Factors,Intermediate Sky,08/21,ZONE WAREHOUSE FINE B END_B - STORY GROUND DAYLIGHTINGCONTROLS,WAREHOUSE FINE B END_B - STORY GROUND,SUB SURFACE 7,WAREHOUSE FINE B END_B - STORY GROUND DAYLT SENSOR 2,8.6405E-003
 Sky Daylight Factors,Overcast Sky,08/21,ZONE WAREHOUSE FINE B END_B - STORY GROUND DAYLIGHTINGCONTROLS,WAREHOUSE FINE B END_B - STORY GROUND,SUB SURFACE 7,WAREHOUSE FINE B END_B - STORY GROUND DAYLT SENSOR 1,5.3088E-002
 Sky Daylight Factors,Overcast Sky,08/21,ZONE WAREHOUSE FINE B END_B - STORY GROUND DAYLIGHTINGCONTROLS,WAREHOUSE FINE B END_B - STORY GROUND,SUB SURFACE 7,WAREHOUSE FINE B END_B - STORY GROUND DAYLT SENSOR 2,6.3142E-003
 Sky Daylight Factors,Clear Sky,08/21,ZONE WAREHOUSE FINE C  - STORY GROUND DAYLIGHTINGCONTROLS,WAREHOUSE FINE C  - STORY GROUND,SUB SURFACE 8,WAREHOUSE FINE C  - STORY GROUND DAYLT SENSOR 1,4.2007E-002
 Sky Daylight Factors,Clear Sky,08/21,ZONE WAREHOUSE FINE C  - STORY GROUND DAYLIGHTINGCONTROLS,WAREHOUSE FINE C  - STORY GROUND,SUB SURFACE 8,WAREHOUSE FINE C  - STORY GROUND DAYLT SENSOR 2,5.7655E-003
 Sky Daylight Factors,Clear Turbid Sky,08/21,ZONE WAREHOUSE FINE C  - STORY GROUND DAYLIGHTINGCONTROLS,WAREHOUSE FINE C  - STORY GROUND,SUB SURFACE 8,WAREHOUSE FINE C  - STORY GROUND DAYLT SENSOR 1,3.3011E-002
 Sky Daylight Factors,Clear Turbid Sky,08/21,ZONE WAREHOUSE FINE C  - STORY GROUND DAYLIGHTINGCONTROLS,WAREHOUSE FINE C  - STORY GROUND,SUB SURFACE 8,WAREHOUSE FINE C  - STORY GROUND DAYLT SENSOR 2,4.7769E-003
 Sky Daylight Factors,Intermediate Sky,08/21,ZONE WAREHOUSE FINE C  - STORY GROUND DAYLIGHTINGCONTROLS,WAREHOUSE FINE C  - STORY GROUND,SUB SURFACE 8,WAREHOUSE FINE C  - STORY GROUND DAYLT SENSOR 1,3.1194E-002
 Sky Daylight Factors,Intermediate Sky,08/21,ZONE WAREHOUSE FINE C  - STORY GROUND DAYLIGHTINGCONTROLS,WAREHOUSE FINE C  - STORY GROUND,SUB SURFACE 8,WAREHOUSE FINE C  - STORY GROUND DAYLT SENSOR 2,4.1581E-003
 Sky Daylight Factors,Overcast Sky,08/21,ZONE WAREHOUSE FINE C  - STORY GROUND DAYLIGHTINGCONTROLS,WAREHOUSE FINE C  - STORY GROUND,SUB SURFACE 8,WAREHOUSE FINE C  - STORY GROUND DAYLT SENSOR 1,5.2716E-002
 Sky Daylight Factors,Overcast Sky,08/21,ZONE WAREHOUSE FINE C  - STORY GROUND DAYLIGHTINGCONTROLS,WAREHOUSE FINE C  - STORY GROUND,SUB SURFACE 8,WAREHOUSE FINE C  - STORY GROUND DAYLT SENSOR 2,5.9496E-003
! <Zone Sizing Information>, Zone Name, Load Type, Calc Des Load {W}, User Des Load {W}, Calc Des Air Flow Rate {m3/s}, User Des Air Flow Rate {m3/s}, Design Day Name, Date/Time of Peak, Temperature at Peak {C}, Humidity Ratio at Peak {kgWater/kgDryAir}, Floor Area {m2}, # Occupants, Calc Outdoor Air Flow Rate {m3/s}, Calc DOAS Heat Addition Rate {W}
 Zone Sizing Information, ZONE WAREHOUSE BULK A  - STORY GROUND, Cooling, 0.00000, 0.00000, 0.00000, 8.48536E-002, KODIAK JULY .4% CONDNS DB=>MCWB, 7/21 15:40:00, 23.98000, 8.28459E-003, 278.39104, 0.00000, 8.48536E-002, 0.00000
 Zone Sizing Information, ZONE WAREHOUSE BULK A  - STORY GROUND, Heating, 28496.36188, 35620.45235, 0.77661, 0.97077, KODIAK ANN HTG 99.6% CONDNS DB, 1/21 06:20:00, -12.80000, 1.24844E-003, 278.39104, 0.00000, 8.48536E-002, 0.00000
 Zone Sizing Information, ZONE WAREHOUSE BULK A END_A - STORY GROUND, Cooling, 0.00000, 0.00000, 0.00000, 6.37129E-003, KODIAK JULY .4% CONDNS DB=>MCWB, 7/21 18:10:00, 22.74250, 8.28268E-003, 20.90318, 0.00000, 6.37129E-003, 0.00000
 Zone Sizing Information, ZONE WAREHOUSE BULK A END_A - STORY GROUND, Heating, 4510.98295, 5638.72869, 0.12294, 0.15367, KODIAK ANN HTG 99.6% CONDNS DB, 1/21 07:00:00, -12.80000, 1.24844E-003, 20.90318, 0.00000, 6.37129E-003, 0.00000
 Zone Sizing Information, ZONE WAREHOUSE BULK B  - STORY GROUND, Cooling, 0.00000, 0.00000, 0.00000, 1.05232, KODIAK JULY .4% CONDNS DB=>MCWB, 7/21 17:20:00, 23.24667, 8.28346E-003, 3452.50711, 0.00000, 1.05232, 0.00000
 Zone Sizing Information, ZONE WAREHOUSE BULK B  - STORY GROUND, Heating, 14862.69716, 18578.37145, 0.40505, 1.05232, KODIAK ANN HTG 99.6% CONDNS DB, 1/21 06:20:00, -12.80000, 1.24844E-003, 3452.50711, 0.00000, 1.05232, 0.00000
 Zone Sizing Information, ZONE WAREHOUSE BULK B END_A - STORY GROUND, Cooling, 0.00000, 0.00000, 0.00000, 7.90145E-002, KODIAK JULY .4% CONDNS DB=>MCWB, 7/21 20:00:00, 21.45000, 8.28069E-003, 259.23389, 0.00000, 7.90145E-002, 0.00000
 Zone Sizing Information, ZONE WAREHOUSE BULK B END_A - STORY GROUND, Heating, 27274.40406, 34093.00507, 0.74331, 0.92914, KODIAK ANN HTG 99.6% CONDNS DB, 1/21 06:50:00, -12.80000, 1.24844E-003, 259.23389, 0.00000, 7.90145E-002, 0.00000
 Zone Sizing Information, ZONE WAREHOUSE BULK C  - STORY GROUND, Cooling, 0.00000, 0.00000, 0.00000, 8.48536E-002, KODIAK JULY .4% CONDNS DB=>MCWB, 7/21 16:40:00, 23.57667, 8.28397E-003, 278.39104, 0.00000, 8.48536E-002, 0.00000
 Zone Sizing Information, ZONE WAREHOUSE BULK C  - STORY GROUND, Heating, 28517.82672, 35647.28340, 0.77720, 0.97150, KODIAK ANN HTG 99.6% CONDNS DB, 1/21 06:20:00, -12.80000, 1.24844E-003, 278.39104, 0.00000, 8.48536E-002, 0.00000
 Zone Sizing Information, ZONE WAREHOUSE BULK C END_A - STORY GROUND, Cooling, 0.00000, 0.00000, 0.00000, 6.37129E-003, KODIAK JULY .4% CONDNS DB=>MCWB, 7/21 20:20:00, 21.28500, 8.28044E-003, 20.90318, 0.00000, 6.37129E-003, 0.00000
 Zone Sizing Information, ZONE WAREHOUSE BULK C END_A - STORY GROUND, Heating, 4514.03778, 5642.54722, 0.12302, 0.15378, KODIAK ANN HTG 99.6% CONDNS DB, 1/21 07:00:00, -12.80000, 1.24844E-003, 20.90318, 0.00000, 6.37129E-003, 0.00000
 Zone Sizing Information, ZONE WAREHOUSE FINE A  - STORY GROUND, Cooling, 9684.78254, 11137.49992, 0.56823, 0.65347, KODIAK AUGUST .4% CONDNS DB=>MCWB, 8/21 14:50:00, 22.60000, 8.70767E-003, 109.23652, 0.00000, 3.32953E-002, 0.00000
 Zone Sizing Information, ZONE WAREHOUSE FINE A  - STORY GROUND, Heating, 14834.55061, 18543.18827, 0.35210, 0.44012, KODIAK ANN HTG 99.6% CONDNS DB, 1/21 06:10:00, -12.80000, 1.24844E-003, 109.23652, 0.00000, 3.32953E-002, 0.00000
 Zone Sizing Information, ZONE WAREHOUSE FINE A END_B - STORY GROUND, Cooling, 3217.89329, 3700.57728, 0.18880, 0.21712, KODIAK JULY .4% CONDNS DB=>MCWB, 7/21 12:00:00, 23.48500, 8.28382E-003, 20.90318, 0.00000, 6.37129E-003, 0.00000
 Zone Sizing Information, ZONE WAREHOUSE FINE A END_B - STORY GROUND, Heating, 5670.88716, 7088.60894, 0.13458, 0.16822, KODIAK ANN HTG 99.6% CONDNS DB, 1/21 06:10:00, -12.80000, 1.24844E-003, 20.90318, 0.00000, 6.37129E-003, 0.00000
 Zone Sizing Information, ZONE WAREHOUSE FINE B  - STORY GROUND, Cooling, 19690.22706, 22643.76111, 1.15527, 1.32856, KODIAK JULY .4% CONDNS DB=>MCWB, 7/21 12:30:00, 23.70500, 8.28416E-003, 1354.71264, 0.00000, 0.41292, 0.00000
 Zone Sizing Information, ZONE WAREHOUSE FINE B  - STORY GROUND, Heating, 14772.27615, 18465.34519, 0.35069, 0.43836, KODIAK ANN HTG 99.6% CONDNS DB, 1/21 06:20:00, -12.80000, 1.24844E-003, 1354.71264, 0.00000, 0.41292, 0.00000
 Zone Sizing Information, ZONE WAREHOUSE FINE B END_B - STORY GROUND, Cooling, 23142.59505, 26613.98431, 1.35781, 1.56148, KODIAK JULY .4% CONDNS DB=>MCWB, 7/21 09:30:00, 21.64250, 8.28098E-003, 259.23389, 0.00000, 7.90145E-002, 0.00000
 Zone Sizing Information, ZONE WAREHOUSE FINE B END_B - STORY GROUND, Heating, 34817.55460, 43521.94325, 0.82639, 1.03299, KODIAK ANN HTG 99.6% CONDNS DB, 1/21 06:10:00, -12.80000, 1.24844E-003, 259.23389, 0.00000, 7.90145E-002, 0.00000
 Zone Sizing Information, ZONE WAREHOUSE FINE C  - STORY GROUND, Cooling, 1675.66854, 1927.01882, 9.83147E-002, 0.11306, KODIAK JULY .4% CONDNS DB=>MCWB, 7/21 14:30:00, 24.20000, 8.28493E-003, 109.23652, 0.00000, 3.32953E-002, 0.00000
 Zone Sizing Information, ZONE WAREHOUSE FINE C  - STORY GROUND, Heating, 14858.98649, 18573.73311, 0.35268, 0.44085, KODIAK ANN HTG 99.6% CONDNS DB, 1/21 06:10:00, -12.80000, 1.24844E-003, 109.23652, 0.00000, 3.32953E-002, 0.00000
 Zone Sizing Information, ZONE WAREHOUSE FINE C END_B - STORY GROUND, Cooling, 2179.01265, 2505.86454, 0.12785, 0.14702, KODIAK JULY .4% CONDNS DB=>MCWB, 7/21 10:20:00, 22.38500, 8.28213E-003, 20.90318, 0.00000, 6.37129E-003, 0.00000
 Zone Sizing Information, ZONE WAREHOUSE FINE C END_B - STORY GROUND, Heating, 5678.27755, 7097.84694, 0.13476, 0.16844, KODIAK ANN HTG 99.6% CONDNS DB, 1/21 06:10:00, -12.80000, 1.24844E-003, 20.90318, 0.00000, 6.37129E-003, 0.00000
 Zone Sizing Information, ZONE WAREHOUSE OFFICE A  - STORY GROUND, Cooling, 5269.35928, 6059.76318, 0.38700, 0.44505, KODIAK AUGUST .4% CONDNS DB=>MCWB, 8/21 15:30:00, 22.41100, 8.70738E-003, 22.12646, 0.46681, 7.84569E-003, 0.00000
 Zone Sizing Information, ZONE WAREHOUSE OFFICE A  - STORY GROUND, Heating, 7055.93745, 8819.92181, 0.19836, 0.24795, KODIAK ANN HTG 99.6% CONDNS DB, 1/21 09:00:00, -12.80000, 1.24844E-003, 22.12646, 0.46681, 7.84569E-003, 0.00000
 Zone Sizing Information, ZONE WAREHOUSE OFFICE B  - STORY GROUND, Cooling, 30222.88995, 34756.32344, 2.16163, 2.48588, KODIAK JULY .4% CONDNS DB=>MCWB, 7/21 09:00:00, 21.17500, 8.28027E-003, 274.40451, 5.78918, 9.72994E-002, 0.00000
 Zone Sizing Information, ZONE WAREHOUSE OFFICE B  - STORY GROUND, Heating, 34559.15945, 43198.94931, 0.97017, 1.21271, KODIAK ANN HTG 99.6% CONDNS DB, 1/21 09:00:00, -12.80000, 1.24844E-003, 274.40451, 5.78918, 9.72994E-002, 0.00000
 Zone Sizing Information, ZONE WAREHOUSE OFFICE C  - STORY GROUND, Cooling, 2748.22249, 3160.45586, 0.19696, 0.22650, KODIAK JULY .4% CONDNS DB=>MCWB, 7/21 09:00:00, 21.17500, 8.28027E-003, 22.12646, 0.46681, 7.84569E-003, 0.00000
 Zone Sizing Information, ZONE WAREHOUSE OFFICE C  - STORY GROUND, Heating, 7066.20777, 8832.75971, 0.19865, 0.24831, KODIAK ANN HTG 99.6% CONDNS DB, 1/21 09:00:00, -12.80000, 1.24844E-003, 22.12646, 0.46681, 7.84569E-003, 0.00000
! <System Sizing Information>, System Name, Load Type, Peak Load Kind, User Design Capacity, Calc Des Air Flow Rate [m3/s], User Des Air Flow Rate [m3/s], Design Day Name, Date/Time of Peak
 System Sizing Information, ZONE WAREHOUSE FINE A  - STORY GROUND PSZ-AC, Cooling, Sensible, 10800.75, 0.65347, 0.65347, KODIAK AUGUST .4% CONDNS DB=>MCWB, 8/21 05:00:00
 System Sizing Information, ZONE WAREHOUSE FINE A  - STORY GROUND PSZ-AC, Heating, Sensible, 19410.92, 0.44012, 0.44012, KODIAK ANN HTG 99.6% CONDNS DB, 1/21 06:10:00
 System Sizing Information, ZONE WAREHOUSE FINE A END_B - STORY GROUND PSZ-AC, Cooling, Sensible, 3618.66, 0.21712, 0.21712, KODIAK JULY .4% CONDNS DB=>MCWB, 7/21 05:00:00
 System Sizing Information, ZONE WAREHOUSE FINE A END_B - STORY GROUND PSZ-AC, Heating, Sensible, 7203.05, 0.16822, 0.16822, KODIAK ANN HTG 99.6% CONDNS DB, 1/21 06:10:00
 System Sizing Information, ZONE WAREHOUSE FINE B  - STORY GROUND PSZ-AC, Cooling, Sensible, 20856.72, 1.32856, 1.32856, KODIAK JULY .4% CONDNS DB=>MCWB, 7/21 05:00:00
 System Sizing Information, ZONE WAREHOUSE FINE B  - STORY GROUND PSZ-AC, Heating, Sensible, 32310.70, 0.43836, 0.43836, KODIAK ANN HTG 99.6% CONDNS DB, 1/21 06:20:00
 System Sizing Information, ZONE WAREHOUSE FINE B END_B - STORY GROUND PSZ-AC, Cooling, Sensible, 25720.78, 1.56148, 1.56148, KODIAK JULY .4% CONDNS DB=>MCWB, 7/21 05:00:00
 System Sizing Information, ZONE WAREHOUSE FINE B END_B - STORY GROUND PSZ-AC, Heating, Sensible, 45588.24, 1.03299, 1.03299, KODIAK ANN HTG 99.6% CONDNS DB, 1/21 06:10:00
 System Sizing Information, ZONE WAREHOUSE FINE C  - STORY GROUND PSZ-AC, Cooling, Sensible, 1796.89, 0.11306, 0.11306, KODIAK JULY .4% CONDNS DB=>MCWB, 7/21 05:00:00
 System Sizing Information, ZONE WAREHOUSE FINE C  - STORY GROUND PSZ-AC, Heating, Sensible, 19441.02, 0.44085, 0.44085, KODIAK ANN HTG 99.6% CONDNS DB, 1/21 06:10:00
 System Sizing Information, ZONE WAREHOUSE FINE C END_B - STORY GROUND PSZ-AC, Cooling, Sensible, 2433.98, 0.14702, 0.14702, KODIAK JULY .4% CONDNS DB=>MCWB, 7/21 05:00:00
 System Sizing Information, ZONE WAREHOUSE FINE C END_B - STORY GROUND PSZ-AC, Heating, Sensible, 7212.16, 0.16844, 0.16844, KODIAK ANN HTG 99.6% CONDNS DB, 1/21 06:10:00
 System Sizing Information, ZONE WAREHOUSE OFFICE A  - STORY GROUND PSZ-AC, Cooling, Sensible, 5951.98, 0.44505, 0.44505, KODIAK AUGUST .4% CONDNS DB=>MCWB, 8/21 05:00:00
 System Sizing Information, ZONE WAREHOUSE OFFICE A  - STORY GROUND PSZ-AC, Heating, Sensible, 9000.69, 0.24795, 0.24795, KODIAK ANN HTG 99.6% CONDNS DB, 1/21 09:00:00
 System Sizing Information, ZONE WAREHOUSE OFFICE B  - STORY GROUND PSZ-AC, Cooling, Sensible, 33155.57, 2.49441, 2.49441, KODIAK JULY .4% CONDNS DB=>MCWB, 7/21 05:00:00
 System Sizing Information, ZONE WAREHOUSE OFFICE B  - STORY GROUND PSZ-AC, Heating, Sensible, 46459.45, 1.21271, 1.21271, KODIAK ANN HTG 99.6% CONDNS DB, 1/21 09:00:00
 System Sizing Information, ZONE WAREHOUSE OFFICE C  - STORY GROUND PSZ-AC, Cooling, Sensible, 3024.23, 0.22650, 0.22650, KODIAK JULY .4% CONDNS DB=>MCWB, 7/21 05:00:00
 System Sizing Information, ZONE WAREHOUSE OFFICE C  - STORY GROUND PSZ-AC, Heating, Sensible, 9013.34, 0.24831, 0.24831, KODIAK ANN HTG 99.6% CONDNS DB, 1/21 09:00:00
! <Component Sizing Information>, Component Type, Component Name, Input Field Description, Value
 Component Sizing Information, ZoneHVAC:Baseboard:Convective:Water, ZONE WAREHOUSE BULK A  - STORY GROUND HYDRONIC BASEBOARD, Design Size Maximum Water Flow Rate [m3/s], 7.79120E-004
 Component Sizing Information, ZoneHVAC:Baseboard:Convective:Water, ZONE WAREHOUSE BULK A  - STORY GROUND HYDRONIC BASEBOARD, Design Size U-Factor Times Area Value [W/K], 671.88471
 Component Sizing Information, ZoneHVAC:Baseboard:Convective:Water, ZONE WAREHOUSE BULK A END_A - STORY GROUND HYDRONIC BASEBOARD, Design Size Maximum Water Flow Rate [m3/s], 1.23335E-004
 Component Sizing Information, ZoneHVAC:Baseboard:Convective:Water, ZONE WAREHOUSE BULK A END_A - STORY GROUND HYDRONIC BASEBOARD, Design Size U-Factor Times Area Value [W/K], 106.35956
 Component Sizing Information, ZoneHVAC:Baseboard:Convective:Water, ZONE WAREHOUSE BULK B  - STORY GROUND HYDRONIC BASEBOARD, Design Size Maximum Water Flow Rate [m3/s], 4.06362E-004
 Component Sizing Information, ZoneHVAC:Baseboard:Convective:Water, ZONE WAREHOUSE BULK B  - STORY GROUND HYDRONIC BASEBOARD, Design Size U-Factor Times Area Value [W/K], 350.43136
 Component Sizing Information, ZoneHVAC:Baseboard:Convective:Water, ZONE WAREHOUSE BULK B END_A - STORY GROUND HYDRONIC BASEBOARD, Design Size Maximum Water Flow Rate [m3/s], 7.45711E-004
 Component Sizing Information, ZoneHVAC:Baseboard:Convective:Water, ZONE WAREHOUSE BULK B END_A - STORY GROUND HYDRONIC BASEBOARD, Design Size U-Factor Times Area Value [W/K], 643.07349
 Component Sizing Information, ZoneHVAC:Baseboard:Convective:Water, ZONE WAREHOUSE BULK C  - STORY GROUND HYDRONIC BASEBOARD, Design Size Maximum Water Flow Rate [m3/s], 7.79707E-004
 Component Sizing Information, ZoneHVAC:Baseboard:Convective:Water, ZONE WAREHOUSE BULK C  - STORY GROUND HYDRONIC BASEBOARD, Design Size U-Factor Times Area Value [W/K], 672.39080
 Component Sizing Information, ZoneHVAC:Baseboard:Convective:Water, ZONE WAREHOUSE BULK C END_A - STORY GROUND HYDRONIC BASEBOARD, Design Size Maximum Water Flow Rate [m3/s], 1.23419E-004
 Component Sizing Information, ZoneHVAC:Baseboard:Convective:Water, ZONE WAREHOUSE BULK C END_A - STORY GROUND HYDRONIC BASEBOARD, Design Size U-Factor Times Area Value [W/K], 106.43158
 Component Sizing Information, AirTerminal:SingleDuct:ConstantVolume:NoReheat, ZONE WAREHOUSE FINE A  - STORY GROUND PSZ-AC DIFFUSER, Design Size Maximum Air Flow Rate [m3/s], 0.65347
 Component Sizing Information, AirTerminal:SingleDuct:ConstantVolume:NoReheat, ZONE WAREHOUSE FINE A END_B - STORY GROUND PSZ-AC DIFFUSER, Design Size Maximum Air Flow Rate [m3/s], 0.21712
 Component Sizing Information, AirTerminal:SingleDuct:ConstantVolume:NoReheat, ZONE WAREHOUSE FINE B  - STORY GROUND PSZ-AC DIFFUSER, Design Size Maximum Air Flow Rate [m3/s], 1.32856
 Component Sizing Information, AirTerminal:SingleDuct:ConstantVolume:NoReheat, ZONE WAREHOUSE FINE B END_B - STORY GROUND PSZ-AC DIFFUSER, Design Size Maximum Air Flow Rate [m3/s], 1.56148
 Component Sizing Information, AirTerminal:SingleDuct:ConstantVolume:NoReheat, ZONE WAREHOUSE FINE C  - STORY GROUND PSZ-AC DIFFUSER, Design Size Maximum Air Flow Rate [m3/s], 0.44085
 Component Sizing Information, AirTerminal:SingleDuct:ConstantVolume:NoReheat, ZONE WAREHOUSE FINE C END_B - STORY GROUND PSZ-AC DIFFUSER, Design Size Maximum Air Flow Rate [m3/s], 0.16844
 Component Sizing Information, AirTerminal:SingleDuct:ConstantVolume:NoReheat, ZONE WAREHOUSE OFFICE A  - STORY GROUND PSZ-AC DIFFUSER, Design Size Maximum Air Flow Rate [m3/s], 0.44505
 Component Sizing Information, AirTerminal:SingleDuct:ConstantVolume:NoReheat, ZONE WAREHOUSE OFFICE B  - STORY GROUND PSZ-AC DIFFUSER, Design Size Maximum Air Flow Rate [m3/s], 2.48588
 Component Sizing Information, AirTerminal:SingleDuct:ConstantVolume:NoReheat, ZONE WAREHOUSE OFFICE C  - STORY GROUND PSZ-AC DIFFUSER, Design Size Maximum Air Flow Rate [m3/s], 0.24831
 Component Sizing Information, AirLoopHVAC, ZONE WAREHOUSE FINE A  - STORY GROUND PSZ-AC, Sum of Air Terminal Maximum Heating Flow Rates [m3/s], 0.65347
 Component Sizing Information, AirLoopHVAC, ZONE WAREHOUSE FINE A  - STORY GROUND PSZ-AC, Sum of Air Terminal Minimum Heating Flow Rates [m3/s], 0.65347
 Component Sizing Information, AirLoopHVAC, ZONE WAREHOUSE FINE A  - STORY GROUND PSZ-AC, Sum of Air Terminal Maximum Flow Rates [m3/s], 0.65347
 Component Sizing Information, AirLoopHVAC, ZONE WAREHOUSE FINE A  - STORY GROUND PSZ-AC, Adjusted Heating Design Air Flow Rate [m3/s], 0.65347
 Component Sizing Information, AirLoopHVAC, ZONE WAREHOUSE FINE A  - STORY GROUND PSZ-AC, Adjusted Cooling Design Air Flow Rate [m3/s], 0.65347
 Component Sizing Information, AirLoopHVAC, ZONE WAREHOUSE FINE A  - STORY GROUND PSZ-AC, Adjusted Main Design Air Flow Rate [m3/s], 0.65347
 Component Sizing Information, AirLoopHVAC, ZONE WAREHOUSE FINE A  - STORY GROUND PSZ-AC, User Heating Air Flow Ratio [], 1.00000
 Component Sizing Information, AirLoopHVAC, ZONE WAREHOUSE FINE A  - STORY GROUND PSZ-AC, Calculated Heating Air Flow Ratio [], 1.00000
 Component Sizing Information, AirLoopHVAC, ZONE WAREHOUSE FINE A END_B - STORY GROUND PSZ-AC, Sum of Air Terminal Maximum Heating Flow Rates [m3/s], 0.21712
 Component Sizing Information, AirLoopHVAC, ZONE WAREHOUSE FINE A END_B - STORY GROUND PSZ-AC, Sum of Air Terminal Minimum Heating Flow Rates [m3/s], 0.21712
 Component Sizing Information, AirLoopHVAC, ZONE WAREHOUSE FINE A END_B - STORY GROUND PSZ-AC, Sum of Air Terminal Maximum Flow Rates [m3/s], 0.21712
 Component Sizing Information, AirLoopHVAC, ZONE WAREHOUSE FINE A END_B - STORY GROUND PSZ-AC, Adjusted Heating Design Air Flow Rate [m3/s], 0.21712
 Component Sizing Information, AirLoopHVAC, ZONE WAREHOUSE FINE A END_B - STORY GROUND PSZ-AC, Adjusted Cooling Design Air Flow Rate [m3/s], 0.21712
 Component Sizing Information, AirLoopHVAC, ZONE WAREHOUSE FINE A END_B - STORY GROUND PSZ-AC, Adjusted Main Design Air Flow Rate [m3/s], 0.21712
 Component Sizing Information, AirLoopHVAC, ZONE WAREHOUSE FINE A END_B - STORY GROUND PSZ-AC, User Heating Air Flow Ratio [], 1.00000
 Component Sizing Information, AirLoopHVAC, ZONE WAREHOUSE FINE A END_B - STORY GROUND PSZ-AC, Calculated Heating Air Flow Ratio [], 1.00000
 Component Sizing Information, AirLoopHVAC, ZONE WAREHOUSE FINE B  - STORY GROUND PSZ-AC, Sum of Air Terminal Maximum Heating Flow Rates [m3/s], 1.32856
 Component Sizing Information, AirLoopHVAC, ZONE WAREHOUSE FINE B  - STORY GROUND PSZ-AC, Sum of Air Terminal Minimum Heating Flow Rates [m3/s], 1.32856
 Component Sizing Information, AirLoopHVAC, ZONE WAREHOUSE FINE B  - STORY GROUND PSZ-AC, Sum of Air Terminal Maximum Flow Rates [m3/s], 1.32856
 Component Sizing Information, AirLoopHVAC, ZONE WAREHOUSE FINE B  - STORY GROUND PSZ-AC, Adjusted Heating Design Air Flow Rate [m3/s], 1.32856
 Component Sizing Information, AirLoopHVAC, ZONE WAREHOUSE FINE B  - STORY GROUND PSZ-AC, Adjusted Cooling Design Air Flow Rate [m3/s], 1.32856
 Component Sizing Information, AirLoopHVAC, ZONE WAREHOUSE FINE B  - STORY GROUND PSZ-AC, Adjusted Main Design Air Flow Rate [m3/s], 1.32856
 Component Sizing Information, AirLoopHVAC, ZONE WAREHOUSE FINE B  - STORY GROUND PSZ-AC, User Heating Air Flow Ratio [], 1.00000
 Component Sizing Information, AirLoopHVAC, ZONE WAREHOUSE FINE B  - STORY GROUND PSZ-AC, Calculated Heating Air Flow Ratio [], 1.00000
 Component Sizing Information, AirLoopHVAC, ZONE WAREHOUSE FINE B END_B - STORY GROUND PSZ-AC, Sum of Air Terminal Maximum Heating Flow Rates [m3/s], 1.56148
 Component Sizing Information, AirLoopHVAC, ZONE WAREHOUSE FINE B END_B - STORY GROUND PSZ-AC, Sum of Air Terminal Minimum Heating Flow Rates [m3/s], 1.56148
 Component Sizing Information, AirLoopHVAC, ZONE WAREHOUSE FINE B END_B - STORY GROUND PSZ-AC, Sum of Air Terminal Maximum Flow Rates [m3/s], 1.56148
 Component Sizing Information, AirLoopHVAC, ZONE WAREHOUSE FINE B END_B - STORY GROUND PSZ-AC, Adjusted Heating Design Air Flow Rate [m3/s], 1.56148
 Component Sizing Information, AirLoopHVAC, ZONE WAREHOUSE FINE B END_B - STORY GROUND PSZ-AC, Adjusted Cooling Design Air Flow Rate [m3/s], 1.56148
 Component Sizing Information, AirLoopHVAC, ZONE WAREHOUSE FINE B END_B - STORY GROUND PSZ-AC, Adjusted Main Design Air Flow Rate [m3/s], 1.56148
 Component Sizing Information, AirLoopHVAC, ZONE WAREHOUSE FINE B END_B - STORY GROUND PSZ-AC, User Heating Air Flow Ratio [], 1.00000
 Component Sizing Information, AirLoopHVAC, ZONE WAREHOUSE FINE B END_B - STORY GROUND PSZ-AC, Calculated Heating Air Flow Ratio [], 1.00000
 Component Sizing Information, AirLoopHVAC, ZONE WAREHOUSE FINE C  - STORY GROUND PSZ-AC, Sum of Air Terminal Maximum Heating Flow Rates [m3/s], 0.44085
 Component Sizing Information, AirLoopHVAC, ZONE WAREHOUSE FINE C  - STORY GROUND PSZ-AC, Sum of Air Terminal Minimum Heating Flow Rates [m3/s], 0.44085
 Component Sizing Information, AirLoopHVAC, ZONE WAREHOUSE FINE C  - STORY GROUND PSZ-AC, Sum of Air Terminal Maximum Flow Rates [m3/s], 0.44085
 Component Sizing Information, AirLoopHVAC, ZONE WAREHOUSE FINE C  - STORY GROUND PSZ-AC, Adjusted Heating Design Air Flow Rate [m3/s], 0.44085
 Component Sizing Information, AirLoopHVAC, ZONE WAREHOUSE FINE C  - STORY GROUND PSZ-AC, Adjusted Cooling Design Air Flow Rate [m3/s], 0.44085
 Component Sizing Information, AirLoopHVAC, ZONE WAREHOUSE FINE C  - STORY GROUND PSZ-AC, Adjusted Main Design Air Flow Rate [m3/s], 0.44085
 Component Sizing Information, AirLoopHVAC, ZONE WAREHOUSE FINE C  - STORY GROUND PSZ-AC, User Heating Air Flow Ratio [], 1.00000
 Component Sizing Information, AirLoopHVAC, ZONE WAREHOUSE FINE C  - STORY GROUND PSZ-AC, Calculated Heating Air Flow Ratio [], 1.00000
 Component Sizing Information, AirLoopHVAC, ZONE WAREHOUSE FINE C END_B - STORY GROUND PSZ-AC, Sum of Air Terminal Maximum Heating Flow Rates [m3/s], 0.16844
 Component Sizing Information, AirLoopHVAC, ZONE WAREHOUSE FINE C END_B - STORY GROUND PSZ-AC, Sum of Air Terminal Minimum Heating Flow Rates [m3/s], 0.16844
 Component Sizing Information, AirLoopHVAC, ZONE WAREHOUSE FINE C END_B - STORY GROUND PSZ-AC, Sum of Air Terminal Maximum Flow Rates [m3/s], 0.16844
 Component Sizing Information, AirLoopHVAC, ZONE WAREHOUSE FINE C END_B - STORY GROUND PSZ-AC, Adjusted Heating Design Air Flow Rate [m3/s], 0.16844
 Component Sizing Information, AirLoopHVAC, ZONE WAREHOUSE FINE C END_B - STORY GROUND PSZ-AC, Adjusted Cooling Design Air Flow Rate [m3/s], 0.16844
 Component Sizing Information, AirLoopHVAC, ZONE WAREHOUSE FINE C END_B - STORY GROUND PSZ-AC, Adjusted Main Design Air Flow Rate [m3/s], 0.16844
 Component Sizing Information, AirLoopHVAC, ZONE WAREHOUSE FINE C END_B - STORY GROUND PSZ-AC, User Heating Air Flow Ratio [], 1.00000
 Component Sizing Information, AirLoopHVAC, ZONE WAREHOUSE FINE C END_B - STORY GROUND PSZ-AC, Calculated Heating Air Flow Ratio [], 1.00000
 Component Sizing Information, AirLoopHVAC, ZONE WAREHOUSE OFFICE A  - STORY GROUND PSZ-AC, Sum of Air Terminal Maximum Heating Flow Rates [m3/s], 0.44505
 Component Sizing Information, AirLoopHVAC, ZONE WAREHOUSE OFFICE A  - STORY GROUND PSZ-AC, Sum of Air Terminal Minimum Heating Flow Rates [m3/s], 0.44505
 Component Sizing Information, AirLoopHVAC, ZONE WAREHOUSE OFFICE A  - STORY GROUND PSZ-AC, Sum of Air Terminal Maximum Flow Rates [m3/s], 0.44505
 Component Sizing Information, AirLoopHVAC, ZONE WAREHOUSE OFFICE A  - STORY GROUND PSZ-AC, Adjusted Heating Design Air Flow Rate [m3/s], 0.44505
 Component Sizing Information, AirLoopHVAC, ZONE WAREHOUSE OFFICE A  - STORY GROUND PSZ-AC, Adjusted Cooling Design Air Flow Rate [m3/s], 0.44505
 Component Sizing Information, AirLoopHVAC, ZONE WAREHOUSE OFFICE A  - STORY GROUND PSZ-AC, Adjusted Main Design Air Flow Rate [m3/s], 0.44505
 Component Sizing Information, AirLoopHVAC, ZONE WAREHOUSE OFFICE A  - STORY GROUND PSZ-AC, User Heating Air Flow Ratio [], 1.00000
 Component Sizing Information, AirLoopHVAC, ZONE WAREHOUSE OFFICE A  - STORY GROUND PSZ-AC, Calculated Heating Air Flow Ratio [], 1.00000
 Component Sizing Information, AirLoopHVAC, ZONE WAREHOUSE OFFICE B  - STORY GROUND PSZ-AC, Sum of Air Terminal Maximum Heating Flow Rates [m3/s], 2.48588
 Component Sizing Information, AirLoopHVAC, ZONE WAREHOUSE OFFICE B  - STORY GROUND PSZ-AC, Sum of Air Terminal Minimum Heating Flow Rates [m3/s], 2.48588
 Component Sizing Information, AirLoopHVAC, ZONE WAREHOUSE OFFICE B  - STORY GROUND PSZ-AC, Sum of Air Terminal Maximum Flow Rates [m3/s], 2.48588
 Component Sizing Information, AirLoopHVAC, ZONE WAREHOUSE OFFICE B  - STORY GROUND PSZ-AC, Adjusted Heating Design Air Flow Rate [m3/s], 2.48588
 Component Sizing Information, AirLoopHVAC, ZONE WAREHOUSE OFFICE B  - STORY GROUND PSZ-AC, Adjusted Cooling Design Air Flow Rate [m3/s], 2.49441
 Component Sizing Information, AirLoopHVAC, ZONE WAREHOUSE OFFICE B  - STORY GROUND PSZ-AC, Adjusted Main Design Air Flow Rate [m3/s], 2.49441
 Component Sizing Information, AirLoopHVAC, ZONE WAREHOUSE OFFICE B  - STORY GROUND PSZ-AC, User Heating Air Flow Ratio [], 1.00000
 Component Sizing Information, AirLoopHVAC, ZONE WAREHOUSE OFFICE B  - STORY GROUND PSZ-AC, Calculated Heating Air Flow Ratio [], 0.99658
 Component Sizing Information, AirLoopHVAC, ZONE WAREHOUSE OFFICE C  - STORY GROUND PSZ-AC, Sum of Air Terminal Maximum Heating Flow Rates [m3/s], 0.24831
 Component Sizing Information, AirLoopHVAC, ZONE WAREHOUSE OFFICE C  - STORY GROUND PSZ-AC, Sum of Air Terminal Minimum Heating Flow Rates [m3/s], 0.24831
 Component Sizing Information, AirLoopHVAC, ZONE WAREHOUSE OFFICE C  - STORY GROUND PSZ-AC, Sum of Air Terminal Maximum Flow Rates [m3/s], 0.24831
 Component Sizing Information, AirLoopHVAC, ZONE WAREHOUSE OFFICE C  - STORY GROUND PSZ-AC, Adjusted Heating Design Air Flow Rate [m3/s], 0.24831
 Component Sizing Information, AirLoopHVAC, ZONE WAREHOUSE OFFICE C  - STORY GROUND PSZ-AC, Adjusted Cooling Design Air Flow Rate [m3/s], 0.24831
 Component Sizing Information, AirLoopHVAC, ZONE WAREHOUSE OFFICE C  - STORY GROUND PSZ-AC, Adjusted Main Design Air Flow Rate [m3/s], 0.24831
 Component Sizing Information, AirLoopHVAC, ZONE WAREHOUSE OFFICE C  - STORY GROUND PSZ-AC, User Heating Air Flow Ratio [], 1.00000
 Component Sizing Information, AirLoopHVAC, ZONE WAREHOUSE OFFICE C  - STORY GROUND PSZ-AC, Calculated Heating Air Flow Ratio [], 1.00000
 Component Sizing Information, AirLoopHVAC, ZONE WAREHOUSE FINE A  - STORY GROUND PSZ-AC, Design Supply Air Flow Rate [m3/s], 0.65347
 Component Sizing Information, AirLoopHVAC, ZONE WAREHOUSE FINE A END_B - STORY GROUND PSZ-AC, Design Supply Air Flow Rate [m3/s], 0.21712
 Component Sizing Information, AirLoopHVAC, ZONE WAREHOUSE FINE B  - STORY GROUND PSZ-AC, Design Supply Air Flow Rate [m3/s], 1.32856
 Component Sizing Information, AirLoopHVAC, ZONE WAREHOUSE FINE B END_B - STORY GROUND PSZ-AC, Design Supply Air Flow Rate [m3/s], 1.56148
 Component Sizing Information, AirLoopHVAC, ZONE WAREHOUSE FINE C  - STORY GROUND PSZ-AC, Design Supply Air Flow Rate [m3/s], 0.44085
 Component Sizing Information, AirLoopHVAC, ZONE WAREHOUSE FINE C END_B - STORY GROUND PSZ-AC, Design Supply Air Flow Rate [m3/s], 0.16844
 Component Sizing Information, AirLoopHVAC, ZONE WAREHOUSE OFFICE A  - STORY GROUND PSZ-AC, Design Supply Air Flow Rate [m3/s], 0.44505
 Component Sizing Information, AirLoopHVAC, ZONE WAREHOUSE OFFICE B  - STORY GROUND PSZ-AC, Design Supply Air Flow Rate [m3/s], 2.49441
 Component Sizing Information, AirLoopHVAC, ZONE WAREHOUSE OFFICE C  - STORY GROUND PSZ-AC, Design Supply Air Flow Rate [m3/s], 0.24831
!<Controller:MechanicalVentilation>,Name,Availability Schedule Name,Demand Controlled Ventilation {Yes/No},System Outdoor Air Method,Zone Maximum Outdoor Air Fraction,Number of Zones,Zone Name,DSOA Name,DSZAD Name
 Controller:MechanicalVentilation,CONTROLLER MECHANICAL VENTILATION 1,ALWAYS ON DISCRETE,No,ZoneSum,1.00,1,ZONE WAREHOUSE FINE A  - STORY GROUND,WAREHOUSE FINE VENTILATION,
 Controller:MechanicalVentilation,CONTROLLER MECHANICAL VENTILATION 2,ALWAYS ON DISCRETE,No,ZoneSum,1.00,1,ZONE WAREHOUSE FINE A END_B - STORY GROUND,WAREHOUSE FINE VENTILATION,
 Controller:MechanicalVentilation,CONTROLLER MECHANICAL VENTILATION 3,ALWAYS ON DISCRETE,No,ZoneSum,1.00,1,ZONE WAREHOUSE FINE B  - STORY GROUND,WAREHOUSE FINE VENTILATION,
 Controller:MechanicalVentilation,CONTROLLER MECHANICAL VENTILATION 4,ALWAYS ON DISCRETE,No,ZoneSum,1.00,1,ZONE WAREHOUSE FINE B END_B - STORY GROUND,WAREHOUSE FINE VENTILATION,
 Controller:MechanicalVentilation,CONTROLLER MECHANICAL VENTILATION 5,ALWAYS ON DISCRETE,No,ZoneSum,1.00,1,ZONE WAREHOUSE FINE C  - STORY GROUND,WAREHOUSE FINE VENTILATION,
 Controller:MechanicalVentilation,CONTROLLER MECHANICAL VENTILATION 6,ALWAYS ON DISCRETE,No,ZoneSum,1.00,1,ZONE WAREHOUSE FINE C END_B - STORY GROUND,WAREHOUSE FINE VENTILATION,
 Controller:MechanicalVentilation,CONTROLLER MECHANICAL VENTILATION 7,ALWAYS ON DISCRETE,No,ZoneSum,1.00,1,ZONE WAREHOUSE OFFICE A  - STORY GROUND,WAREHOUSE OFFICE VENTILATION,
 Controller:MechanicalVentilation,CONTROLLER MECHANICAL VENTILATION 8,ALWAYS ON DISCRETE,No,ZoneSum,1.00,1,ZONE WAREHOUSE OFFICE B  - STORY GROUND,WAREHOUSE OFFICE VENTILATION,
 Controller:MechanicalVentilation,CONTROLLER MECHANICAL VENTILATION 9,ALWAYS ON DISCRETE,No,ZoneSum,1.00,1,ZONE WAREHOUSE OFFICE C  - STORY GROUND,WAREHOUSE OFFICE VENTILATION,
 Component Sizing Information, Controller:OutdoorAir, ZONE WAREHOUSE FINE A  - STORY GROUND PSZ-AC OA SYSTEM CONTROLLER, Maximum Outdoor Air Flow Rate [m3/s], 0.65347
 Component Sizing Information, Controller:OutdoorAir, ZONE WAREHOUSE FINE A  - STORY GROUND PSZ-AC OA SYSTEM CONTROLLER, Minimum Outdoor Air Flow Rate [m3/s], 3.32953E-002
 Component Sizing Information, AirLoopHVAC:UnitarySystem, ZONE WAREHOUSE FINE A  - STORY GROUND PSZ-AC UNITARY AC, Design Size Supply Air Flow Rate [m3/s], 0.65347
 Component Sizing Information, AirLoopHVAC:UnitarySystem, ZONE WAREHOUSE FINE A  - STORY GROUND PSZ-AC UNITARY AC, Design Size Heating Supply Air Flow Rate [m3/s], 0.65347
 Component Sizing Information, AirLoopHVAC:UnitarySystem, ZONE WAREHOUSE FINE A  - STORY GROUND PSZ-AC UNITARY AC, Design Size Cooling Supply Air Flow Rate [m3/s], 0.65347
 Component Sizing Information, AirLoopHVAC:UnitarySystem, ZONE WAREHOUSE FINE A  - STORY GROUND PSZ-AC UNITARY AC, User-Specified No Load Supply Air Flow Rate [m3/s], 0.00000
 Component Sizing Information, AirLoopHVAC:UnitarySystem, ZONE WAREHOUSE FINE A  - STORY GROUND PSZ-AC UNITARY AC, Design Size Nominal Cooling Capacity [W], 11705.79170
 Component Sizing Information, Coil:Heating:Water, ZONE WAREHOUSE FINE A  - STORY GROUND PSZ-AC WATER HTG COIL, Design Size Rated Capacity [W], 28268.55867
 Component Sizing Information, Coil:Heating:Water, ZONE WAREHOUSE FINE A  - STORY GROUND PSZ-AC WATER HTG COIL, Design Size Maximum Water Flow Rate [m3/s], 6.18314E-004
 Component Sizing Information, Coil:Heating:Water, ZONE WAREHOUSE FINE A  - STORY GROUND PSZ-AC WATER HTG COIL, Design Size U-Factor Times Area Value [W/K], 670.62253
! <Water Heating Coil Capacity Information>,Component Type,Name,Nominal Total Capacity {W}
Water Heating Coil Capacity Information,Coil:Heating:Water,ZONE WAREHOUSE FINE A  - STORY GROUND PSZ-AC WATER HTG COIL,27280.76
 Component Sizing Information, AirLoopHVAC:UnitarySystem, ZONE WAREHOUSE FINE A  - STORY GROUND PSZ-AC UNITARY AC, Design Size Nominal Heating Capacity [W], 28268.55867
 Component Sizing Information, AirLoopHVAC:UnitarySystem, ZONE WAREHOUSE FINE A  - STORY GROUND PSZ-AC UNITARY AC, Design Size Maximum Supply Air Temperature [C], 50.00000
 Component Sizing Information, AirLoopHVAC:UnitarySystem, ZONE WAREHOUSE FINE A  - STORY GROUND PSZ-AC UNITARY AC, User-Specified Maximum Supply Air Temperature [C], 80.00000
 Component Sizing Information, AirLoopHVAC:UnitarySystem, ZONE WAREHOUSE FINE A  - STORY GROUND PSZ-AC UNITARY AC, User-Specified Supplemental Heating Coil Nominal Capacity [W], 28268.55867
 Component Sizing Information, AirLoopHVAC:UnitarySystem, ZONE WAREHOUSE FINE A  - STORY GROUND PSZ-AC UNITARY AC, Fraction of Supply Air Flow That Goes Through the Controlling Zone, 1.00000
 Component Sizing Information, Coil:Cooling:DX:SingleSpeed, ZONE WAREHOUSE FINE A  - STORY GROUND PSZ-AC 1SPD DX AC CLG COIL, Design Size Rated Air Flow Rate [m3/s], 0.65347
 Component Sizing Information, Coil:Cooling:DX:SingleSpeed, ZONE WAREHOUSE FINE A  - STORY GROUND PSZ-AC 1SPD DX AC CLG COIL, Design Size Gross Rated Total Cooling Capacity [W], 11705.79170
 Component Sizing Information, Coil:Cooling:DX:SingleSpeed, ZONE WAREHOUSE FINE A  - STORY GROUND PSZ-AC 1SPD DX AC CLG COIL, Design Size Gross Rated Sensible Heat Ratio, 0.80075
! <DX Cooling Coil Standard Rating Information>, Component Type, Component Name, Standard Rating (Net) Cooling Capacity {W}, Standard Rated Net COP {W/W}, EER {Btu/W-h}, SEER User {Btu/W-h}, SEER Standard {Btu/W-h}, IEER {Btu/W-h}
 DX Cooling Coil Standard Rating Information, Coil:Cooling:DX:SingleSpeed, ZONE WAREHOUSE FINE A  - STORY GROUND PSZ-AC 1SPD DX AC CLG COIL, 11199.3, 2.54, 8.67, 9.97, 9.12, 9.57
 DX Cooling Coil Standard Rating Information, Coil:Cooling:DX:SingleSpeed, ZONE WAREHOUSE FINE A  - STORY GROUND PSZ-AC 1SPD DX AC CLG COIL, 11094.0, 2.46, 8.39, 9.62, 9.05,  
 Component Sizing Information, Fan:OnOff, ZONE WAREHOUSE FINE A  - STORY GROUND PSZ-AC FAN, Design Size Maximum Flow Rate [m3/s], 0.65347
 Component Sizing Information, Coil:Heating:Electric, ZONE WAREHOUSE FINE A  - STORY GROUND PSZ-AC ELECTRIC BACKUP HTG COIL, Design Size Nominal Capacity [W], 28268.55867
 Component Sizing Information, Controller:OutdoorAir, ZONE WAREHOUSE FINE A END_B - STORY GROUND PSZ-AC OA SYSTEM CONTROLLER, Maximum Outdoor Air Flow Rate [m3/s], 0.21712
 Component Sizing Information, Controller:OutdoorAir, ZONE WAREHOUSE FINE A END_B - STORY GROUND PSZ-AC OA SYSTEM CONTROLLER, Minimum Outdoor Air Flow Rate [m3/s], 6.37129E-003
 Component Sizing Information, AirLoopHVAC:UnitarySystem, ZONE WAREHOUSE FINE A END_B - STORY GROUND PSZ-AC UNITARY AC, Design Size Supply Air Flow Rate [m3/s], 0.21712
 Component Sizing Information, AirLoopHVAC:UnitarySystem, ZONE WAREHOUSE FINE A END_B - STORY GROUND PSZ-AC UNITARY AC, Design Size Heating Supply Air Flow Rate [m3/s], 0.21712
 Component Sizing Information, AirLoopHVAC:UnitarySystem, ZONE WAREHOUSE FINE A END_B - STORY GROUND PSZ-AC UNITARY AC, Design Size Cooling Supply Air Flow Rate [m3/s], 0.21712
 Component Sizing Information, AirLoopHVAC:UnitarySystem, ZONE WAREHOUSE FINE A END_B - STORY GROUND PSZ-AC UNITARY AC, User-Specified No Load Supply Air Flow Rate [m3/s], 0.00000
 Component Sizing Information, AirLoopHVAC:UnitarySystem, ZONE WAREHOUSE FINE A END_B - STORY GROUND PSZ-AC UNITARY AC, Design Size Nominal Cooling Capacity [W], 3905.17678
 Component Sizing Information, Coil:Heating:Water, ZONE WAREHOUSE FINE A END_B - STORY GROUND PSZ-AC WATER HTG COIL, Design Size Rated Capacity [W], 9233.29185
 Component Sizing Information, Coil:Heating:Water, ZONE WAREHOUSE FINE A END_B - STORY GROUND PSZ-AC WATER HTG COIL, Design Size Maximum Water Flow Rate [m3/s], 2.01958E-004
 Component Sizing Information, Coil:Heating:Water, ZONE WAREHOUSE FINE A END_B - STORY GROUND PSZ-AC WATER HTG COIL, Design Size U-Factor Times Area Value [W/K], 220.39217
Water Heating Coil Capacity Information,Coil:Heating:Water,ZONE WAREHOUSE FINE A END_B - STORY GROUND PSZ-AC WATER HTG COIL,8990.54
 Component Sizing Information, AirLoopHVAC:UnitarySystem, ZONE WAREHOUSE FINE A END_B - STORY GROUND PSZ-AC UNITARY AC, Design Size Nominal Heating Capacity [W], 9233.29185
 Component Sizing Information, AirLoopHVAC:UnitarySystem, ZONE WAREHOUSE FINE A END_B - STORY GROUND PSZ-AC UNITARY AC, Design Size Maximum Supply Air Temperature [C], 50.00000
 Component Sizing Information, AirLoopHVAC:UnitarySystem, ZONE WAREHOUSE FINE A END_B - STORY GROUND PSZ-AC UNITARY AC, User-Specified Maximum Supply Air Temperature [C], 80.00000
 Component Sizing Information, AirLoopHVAC:UnitarySystem, ZONE WAREHOUSE FINE A END_B - STORY GROUND PSZ-AC UNITARY AC, User-Specified Supplemental Heating Coil Nominal Capacity [W], 9233.29185
 Component Sizing Information, AirLoopHVAC:UnitarySystem, ZONE WAREHOUSE FINE A END_B - STORY GROUND PSZ-AC UNITARY AC, Fraction of Supply Air Flow That Goes Through the Controlling Zone, 1.00000
 Component Sizing Information, Coil:Cooling:DX:SingleSpeed, ZONE WAREHOUSE FINE A END_B - STORY GROUND PSZ-AC 1SPD DX AC CLG COIL, Design Size Rated Air Flow Rate [m3/s], 0.21712
 Component Sizing Information, Coil:Cooling:DX:SingleSpeed, ZONE WAREHOUSE FINE A END_B - STORY GROUND PSZ-AC 1SPD DX AC CLG COIL, Design Size Gross Rated Total Cooling Capacity [W], 3905.17678
 Component Sizing Information, Coil:Cooling:DX:SingleSpeed, ZONE WAREHOUSE FINE A END_B - STORY GROUND PSZ-AC 1SPD DX AC CLG COIL, Design Size Gross Rated Sensible Heat Ratio, 0.80037
 DX Cooling Coil Standard Rating Information, Coil:Cooling:DX:SingleSpeed, ZONE WAREHOUSE FINE A END_B - STORY GROUND PSZ-AC 1SPD DX AC CLG COIL, 3736.9, 2.54, 8.68, 9.98, 9.13, 9.58
 DX Cooling Coil Standard Rating Information, Coil:Cooling:DX:SingleSpeed, ZONE WAREHOUSE FINE A END_B - STORY GROUND PSZ-AC 1SPD DX AC CLG COIL, 3701.9, 2.46, 8.40, 9.63, 9.06,  
 Component Sizing Information, Fan:OnOff, ZONE WAREHOUSE FINE A END_B - STORY GROUND PSZ-AC FAN, Design Size Maximum Flow Rate [m3/s], 0.21712
 Component Sizing Information, Coil:Heating:Electric, ZONE WAREHOUSE FINE A END_B - STORY GROUND PSZ-AC ELECTRIC BACKUP HTG COIL, Design Size Nominal Capacity [W], 9233.29185
 Component Sizing Information, Controller:OutdoorAir, ZONE WAREHOUSE FINE B  - STORY GROUND PSZ-AC OA SYSTEM CONTROLLER, Maximum Outdoor Air Flow Rate [m3/s], 1.32856
 Component Sizing Information, Controller:OutdoorAir, ZONE WAREHOUSE FINE B  - STORY GROUND PSZ-AC OA SYSTEM CONTROLLER, Minimum Outdoor Air Flow Rate [m3/s], 0.41292
 Component Sizing Information, AirLoopHVAC:UnitarySystem, ZONE WAREHOUSE FINE B  - STORY GROUND PSZ-AC UNITARY AC, Design Size Supply Air Flow Rate [m3/s], 1.32856
 Component Sizing Information, AirLoopHVAC:UnitarySystem, ZONE WAREHOUSE FINE B  - STORY GROUND PSZ-AC UNITARY AC, Design Size Heating Supply Air Flow Rate [m3/s], 1.32856
 Component Sizing Information, AirLoopHVAC:UnitarySystem, ZONE WAREHOUSE FINE B  - STORY GROUND PSZ-AC UNITARY AC, Design Size Cooling Supply Air Flow Rate [m3/s], 1.32856
 Component Sizing Information, AirLoopHVAC:UnitarySystem, ZONE WAREHOUSE FINE B  - STORY GROUND PSZ-AC UNITARY AC, User-Specified No Load Supply Air Flow Rate [m3/s], 0.00000
 Component Sizing Information, AirLoopHVAC:UnitarySystem, ZONE WAREHOUSE FINE B  - STORY GROUND PSZ-AC UNITARY AC, Design Size Nominal Cooling Capacity [W], 22871.36656
 Component Sizing Information, Coil:Heating:Water, ZONE WAREHOUSE FINE B  - STORY GROUND PSZ-AC WATER HTG COIL, Design Size Rated Capacity [W], 69262.98814
 Component Sizing Information, Coil:Heating:Water, ZONE WAREHOUSE FINE B  - STORY GROUND PSZ-AC WATER HTG COIL, Design Size Maximum Water Flow Rate [m3/s], 1.51498E-003
 Component Sizing Information, Coil:Heating:Water, ZONE WAREHOUSE FINE B  - STORY GROUND PSZ-AC WATER HTG COIL, Design Size U-Factor Times Area Value [W/K], 1529.16511
Water Heating Coil Capacity Information,Coil:Heating:Water,ZONE WAREHOUSE FINE B  - STORY GROUND PSZ-AC WATER HTG COIL,60277.78
[...]
Environment:Daylight Saving,No,SizingPeriod:DesignDay
Environment:Design Day Data,12.60,6.20,DefaultMultipliers,Wetbulb,9.40,{C},100917,320,5.0,0.00,No,No
Environment:Design Day Misc,294,1191.2,0.1597,7.3069E-002,1.0,15.18,-10.4,ASHRAETau
Environment:WarmupDays,  9
 Warmup Convergence Information,ZONE WAREHOUSE BULK A  - STORY GROUND,SizingPeriod: KODIAK OCTOBER .4% CONDNS DB=>MCWB,0.1154810039,9.7431864865E-002,Pass,Pass,0.0000000000,0.0000000000,Pass,Pass
 Warmup Convergence Information,ZONE WAREHOUSE BULK A END_A - STORY GROUND,SizingPeriod: KODIAK OCTOBER .4% CONDNS DB=>MCWB,0.1407096590,0.1080956678,Pass,Pass,0.0000000000,0.0000000000,Pass,Pass
 Warmup Convergence Information,ZONE WAREHOUSE BULK B  - STORY GROUND,SizingPeriod: KODIAK OCTOBER .4% CONDNS DB=>MCWB,3.3040806159E-002,1.6371473245E-002,Pass,Pass,0.0000000000,0.0000000000,Pass,Pass
 Warmup Convergence Information,ZONE WAREHOUSE BULK B END_A - STORY GROUND,SizingPeriod: KODIAK OCTOBER .4% CONDNS DB=>MCWB,7.8060574813E-002,6.4859198333E-002,Pass,Pass,0.0000000000,0.0000000000,Pass,Pass
 Warmup Convergence Information,ZONE WAREHOUSE BULK C  - STORY GROUND,SizingPeriod: KODIAK OCTOBER .4% CONDNS DB=>MCWB,3.6993408308E-002,2.0934031348E-002,Pass,Pass,0.0000000000,0.0000000000,Pass,Pass
 Warmup Convergence Information,ZONE WAREHOUSE BULK C END_A - STORY GROUND,SizingPeriod: KODIAK OCTOBER .4% CONDNS DB=>MCWB,7.9771990188E-002,5.3858317498E-002,Pass,Pass,0.0000000000,0.0000000000,Pass,Pass
 Warmup Convergence Information,ZONE WAREHOUSE FINE A  - STORY GROUND,SizingPeriod: KODIAK OCTOBER .4% CONDNS DB=>MCWB,0.1120569389,9.3829986369E-002,Pass,Pass,3.1781666061E-002,8.7873115564E-002,Pass,Pass
 Warmup Convergence Information,ZONE WAREHOUSE FINE A END_B - STORY GROUND,SizingPeriod: KODIAK OCTOBER .4% CONDNS DB=>MCWB,0.1248879535,0.1137628798,Pass,Pass,1.4838657734E-002,2.7976953583E-002,Pass,Pass
 Warmup Convergence Information,ZONE WAREHOUSE FINE B  - STORY GROUND,SizingPeriod: KODIAK OCTOBER .4% CONDNS DB=>MCWB,3.2206276499E-002,1.9948535092E-002,Pass,Pass,7.3178978730E-003,5.9128591528E-003,Pass,Pass
 Warmup Convergence Information,ZONE WAREHOUSE FINE B END_B - STORY GROUND,SizingPeriod: KODIAK OCTOBER .4% CONDNS DB=>MCWB,5.3360482896E-002,6.5623267606E-002,Pass,Pass,1.1266434870E-002,2.4771792607E-002,Pass,Pass
 Warmup Convergence Information,ZONE WAREHOUSE FINE C  - STORY GROUND,SizingPeriod: KODIAK OCTOBER .4% CONDNS DB=>MCWB,3.7063716496E-002,2.2803743333E-002,Pass,Pass,1.2064152173E-002,1.2128565981E-002,Pass,Pass
 Warmup Convergence Information,ZONE WAREHOUSE FINE C END_B - STORY GROUND,SizingPeriod: KODIAK OCTOBER .4% CONDNS DB=>MCWB,4.3964050161E-002,5.9310383479E-002,Pass,Pass,3.4759336769E-002,0.1272603936,Pass,Pass
 Warmup Convergence Information,ZONE WAREHOUSE OFFICE A  - STORY GROUND,SizingPeriod: KODIAK OCTOBER .4% CONDNS DB=>MCWB,6.5347281473E-002,0.1155193293,Pass,Pass,0.1094723544,0.3570012285,Pass,Pass
 Warmup Convergence Information,ZONE WAREHOUSE OFFICE B  - STORY GROUND,SizingPeriod: KODIAK OCTOBER .4% CONDNS DB=>MCWB,2.7176908387E-002,1.4648442578E-002,Pass,Pass,7.0502416745E-003,8.9639808242E-003,Pass,Pass
 Warmup Convergence Information,ZONE WAREHOUSE OFFICE C  - STORY GROUND,SizingPeriod: KODIAK OCTOBER .4% CONDNS DB=>MCWB,5.3083023617E-002,0.2122467959,Pass,Pass,0.2025852824,1.4628083600,Pass,Pass
Environment,KODIAK OCTOBER .4% CONDNS WB=>MCDB,SizingPeriod:DesignDay,10/21,10/21,SummerDesignDay,1,N/A,N/A,N/A,N/A,N/A,N/A,Clark and Allen
Environment:Daylight Saving,No,SizingPeriod:DesignDay
Environment:Design Day Data,11.30,6.20,DefaultMultipliers,Wetbulb,10.70,{C},100917,320,5.0,0.00,No,No
Environment:Design Day Misc,294,1191.2,0.1597,7.3069E-002,1.0,15.18,-10.4,ASHRAETau
Environment:WarmupDays, 11
 Warmup Convergence Information,ZONE WAREHOUSE BULK A  - STORY GROUND,SizingPeriod: KODIAK OCTOBER .4% CONDNS WB=>MCDB,0.1160190342,9.7616020480E-002,Pass,Pass,0.0000000000,0.0000000000,Pass,Pass
 Warmup Convergence Information,ZONE WAREHOUSE BULK A END_A - STORY GROUND,SizingPeriod: KODIAK OCTOBER .4% CONDNS WB=>MCDB,0.1411032799,0.1081176892,Pass,Pass,0.0000000000,0.0000000000,Pass,Pass
 Warmup Convergence Information,ZONE WAREHOUSE BULK B  - STORY GROUND,SizingPeriod: KODIAK OCTOBER .4% CONDNS WB=>MCDB,3.3230497106E-002,1.6543416004E-002,Pass,Pass,0.0000000000,0.0000000000,Pass,Pass
 Warmup Convergence Information,ZONE WAREHOUSE BULK B END_A - STORY GROUND,SizingPeriod: KODIAK OCTOBER .4% CONDNS WB=>MCDB,7.8314856619E-002,6.4809879432E-002,Pass,Pass,0.0000000000,0.0000000000,Pass,Pass
 Warmup Convergence Information,ZONE WAREHOUSE BULK C  - STORY GROUND,SizingPeriod: KODIAK OCTOBER .4% CONDNS WB=>MCDB,3.7436650282E-002,2.1101322831E-002,Pass,Pass,0.0000000000,0.0000000000,Pass,Pass
 Warmup Convergence Information,ZONE WAREHOUSE BULK C END_A - STORY GROUND,SizingPeriod: KODIAK OCTOBER .4% CONDNS WB=>MCDB,8.0141543936E-002,5.3824164562E-002,Pass,Pass,0.0000000000,0.0000000000,Pass,Pass
 Warmup Convergence Information,ZONE WAREHOUSE FINE A  - STORY GROUND,SizingPeriod: KODIAK OCTOBER .4% CONDNS WB=>MCDB,0.1126436221,9.3824928688E-002,Pass,Pass,3.4974916542E-002,9.9821004381E-002,Pass,Pass
 Warmup Convergence Information,ZONE WAREHOUSE FINE A END_B - STORY GROUND,SizingPeriod: KODIAK OCTOBER .4% CONDNS WB=>MCDB,0.1120161301,0.1149817092,Pass,Pass,3.6803736106E-002,0.1057486989,Pass,Pass
 Warmup Convergence Information,ZONE WAREHOUSE FINE B  - STORY GROUND,SizingPeriod: KODIAK OCTOBER .4% CONDNS WB=>MCDB,3.2157916723E-002,2.0111384307E-002,Pass,Pass,7.0246099389E-003,5.6989244731E-003,Pass,Pass
 Warmup Convergence Information,ZONE WAREHOUSE FINE B END_B - STORY GROUND,SizingPeriod: KODIAK OCTOBER .4% CONDNS WB=>MCDB,5.2919134946E-002,6.5918270388E-002,Pass,Pass,1.5409662523E-002,3.3250535382E-002,Pass,Pass
 Warmup Convergence Information,ZONE WAREHOUSE FINE C  - STORY GROUND,SizingPeriod: KODIAK OCTOBER .4% CONDNS WB=>MCDB,2.9539835522E-002,2.6065845894E-002,Pass,Pass,3.4428815323E-002,6.7481005885E-002,Pass,Pass
 Warmup Convergence Information,ZONE WAREHOUSE FINE C END_B - STORY GROUND,SizingPeriod: KODIAK OCTOBER .4% CONDNS WB=>MCDB,3.0461430706E-002,4.8724169710E-002,Pass,Pass,4.1669236040E-002,0.1384504681,Pass,Pass
 Warmup Convergence Information,ZONE WAREHOUSE OFFICE A  - STORY GROUND,SizingPeriod: KODIAK OCTOBER .4% CONDNS WB=>MCDB,8.0694292993E-002,0.1750725327,Pass,Pass,0.1180241898,0.3593303383,Pass,Pass
 Warmup Convergence Information,ZONE WAREHOUSE OFFICE B  - STORY GROUND,SizingPeriod: KODIAK OCTOBER .4% CONDNS WB=>MCDB,2.8497976263E-002,1.7528225365E-002,Pass,Pass,7.4783514609E-003,1.0736504668E-002,Pass,Pass
 Warmup Convergence Information,ZONE WAREHOUSE OFFICE C  - STORY GROUND,SizingPeriod: KODIAK OCTOBER .4% CONDNS WB=>MCDB,7.1002048828E-002,0.2478796382,Pass,Pass,0.1057804705,0.4662120931,Pass,Pass
Environment,KODIAK SEPTEMBER .4% CONDNS DB=>MCWB,SizingPeriod:DesignDay,09/21,09/21,SummerDesignDay,1,N/A,N/A,N/A,N/A,N/A,N/A,Clark and Allen
Environment:Daylight Saving,No,SizingPeriod:DesignDay
Environment:Design Day Data,18.00,6.40,DefaultMultipliers,Wetbulb,12.50,{C},100917,320,5.0,0.00,No,No
Environment:Design Day Misc,264,1151.1,0.1777,9.2179E-002,1.0,6.63,1.0,ASHRAETau
Environment:WarmupDays, 13
 Warmup Convergence Information,ZONE WAREHOUSE BULK A  - STORY GROUND,SizingPeriod: KODIAK SEPTEMBER .4% CONDNS DB=>MCWB,0.1088386231,7.7967326162E-002,Pass,Pass,0.0000000000,0.0000000000,Pass,Pass
 Warmup Convergence Information,ZONE WAREHOUSE BULK A END_A - STORY GROUND,SizingPeriod: KODIAK SEPTEMBER .4% CONDNS DB=>MCWB,0.1492677441,0.1012825389,Pass,Pass,0.0000000000,0.0000000000,Pass,Pass
 Warmup Convergence Information,ZONE WAREHOUSE BULK B  - STORY GROUND,SizingPeriod: KODIAK SEPTEMBER .4% CONDNS DB=>MCWB,3.1419278564E-002,1.4546952384E-002,Pass,Pass,0.0000000000,0.0000000000,Pass,Pass
 Warmup Convergence Information,ZONE WAREHOUSE BULK B END_A - STORY GROUND,SizingPeriod: KODIAK SEPTEMBER .4% CONDNS DB=>MCWB,9.8833521231E-002,8.5903754036E-002,Pass,Pass,0.0000000000,0.0000000000,Pass,Pass
 Warmup Convergence Information,ZONE WAREHOUSE BULK C  - STORY GROUND,SizingPeriod: KODIAK SEPTEMBER .4% CONDNS DB=>MCWB,4.0907372360E-002,2.3534881389E-002,Pass,Pass,0.0000000000,0.0000000000,Pass,Pass
 Warmup Convergence Information,ZONE WAREHOUSE BULK C END_A - STORY GROUND,SizingPeriod: KODIAK SEPTEMBER .4% CONDNS DB=>MCWB,0.1011316146,7.1006543016E-002,Pass,Pass,0.0000000000,0.0000000000,Pass,Pass
 Warmup Convergence Information,ZONE WAREHOUSE FINE A  - STORY GROUND,SizingPeriod: KODIAK SEPTEMBER .4% CONDNS DB=>MCWB,4.5499776142E-002,6.1769139507E-002,Pass,Pass,8.5849132749E-002,0.3117178743,Pass,Pass
 Warmup Convergence Information,ZONE WAREHOUSE FINE A END_B - STORY GROUND,SizingPeriod: KODIAK SEPTEMBER .4% CONDNS DB=>MCWB,7.3173249925E-002,0.1063675681,Pass,Pass,8.2198403982E-002,0.3260998608,Pass,Pass
 Warmup Convergence Information,ZONE WAREHOUSE FINE B  - STORY GROUND,SizingPeriod: KODIAK SEPTEMBER .4% CONDNS DB=>MCWB,2.0406019082E-002,2.1356575032E-002,Pass,Pass,1.7010461096E-002,4.5117109554E-002,Pass,Pass
 Warmup Convergence Information,ZONE WAREHOUSE FINE B END_B - STORY GROUND,SizingPeriod: KODIAK SEPTEMBER .4% CONDNS DB=>MCWB,6.0878004833E-002,8.8705497097E-002,Pass,Pass,8.7143540642E-002,0.3493022494,Pass,Pass
 Warmup Convergence Information,ZONE WAREHOUSE FINE C  - STORY GROUND,SizingPeriod: KODIAK SEPTEMBER .4% CONDNS DB=>MCWB,4.1130065334E-002,2.7474604615E-002,Pass,Pass,1.3767850904E-002,1.3871945712E-002,Pass,Pass
 Warmup Convergence Information,ZONE WAREHOUSE FINE C END_B - STORY GROUND,SizingPeriod: KODIAK SEPTEMBER .4% CONDNS DB=>MCWB,8.1794203369E-002,8.3495312105E-002,Pass,Pass,1.9217072292E-002,4.6878430467E-002,Pass,Pass
 Warmup Convergence Information,ZONE WAREHOUSE OFFICE A  - STORY GROUND,SizingPeriod: KODIAK SEPTEMBER .4% CONDNS DB=>MCWB,5.2169400672E-002,0.1867401899,Pass,Pass,9.7834898949E-002,0.6664523769,Pass,Pass
 Warmup Convergence Information,ZONE WAREHOUSE OFFICE B  - STORY GROUND,SizingPeriod: KODIAK SEPTEMBER .4% CONDNS DB=>MCWB,6.1051731855E-002,0.1950324892,Pass,Pass,0.1966147753,1.0851106223,Pass,Pass
 Warmup Convergence Information,ZONE WAREHOUSE OFFICE C  - STORY GROUND,SizingPeriod: KODIAK SEPTEMBER .4% CONDNS DB=>MCWB,2.0759019590E-002,2.7884967425E-002,Pass,Pass,6.7169870030E-002,0.2933286847,Pass,Pass
Environment,KODIAK SEPTEMBER .4% CONDNS WB=>MCDB,SizingPeriod:DesignDay,09/21,09/21,SummerDesignDay,1,N/A,N/A,N/A,N/A,N/A,N/A,Clark and Allen
Environment:Daylight Saving,No,SizingPeriod:DesignDay
Environment:Design Day Data,16.20,6.40,DefaultMultipliers,Wetbulb,13.80,{C},100917,320,5.0,0.00,No,No
Environment:Design Day Misc,264,1151.1,0.1777,9.2179E-002,1.0,6.63,1.0,ASHRAETau
Environment:WarmupDays,  9
 Warmup Convergence Information,ZONE WAREHOUSE BULK A  - STORY GROUND,SizingPeriod: KODIAK SEPTEMBER .4% CONDNS WB=>MCDB,0.1096831894,7.8607730420E-002,Pass,Pass,0.0000000000,0.0000000000,Pass,Pass
 Warmup Convergence Information,ZONE WAREHOUSE BULK A END_A - STORY GROUND,SizingPeriod: KODIAK SEPTEMBER .4% CONDNS WB=>MCDB,0.1497010174,0.1004016431,Pass,Pass,0.0000000000,0.0000000000,Pass,Pass
 Warmup Convergence Information,ZONE WAREHOUSE BULK B  - STORY GROUND,SizingPeriod: KODIAK SEPTEMBER .4% CONDNS WB=>MCDB,3.2499010943E-002,1.5041185981E-002,Pass,Pass,0.0000000000,0.0000000000,Pass,Pass
 Warmup Convergence Information,ZONE WAREHOUSE BULK B END_A - STORY GROUND,SizingPeriod: KODIAK SEPTEMBER .4% CONDNS WB=>MCDB,9.9392247492E-002,8.4525477322E-002,Pass,Pass,0.0000000000,0.0000000000,Pass,Pass
 Warmup Convergence Information,ZONE WAREHOUSE BULK C  - STORY GROUND,SizingPeriod: KODIAK SEPTEMBER .4% CONDNS WB=>MCDB,4.1538416745E-002,2.3756693932E-002,Pass,Pass,0.0000000000,0.0000000000,Pass,Pass
 Warmup Convergence Information,ZONE WAREHOUSE BULK C END_A - STORY GROUND,SizingPeriod: KODIAK SEPTEMBER .4% CONDNS WB=>MCDB,0.1015464243,7.0144333136E-002,Pass,Pass,0.0000000000,0.0000000000,Pass,Pass
 Warmup Convergence Information,ZONE WAREHOUSE FINE A  - STORY GROUND,SizingPeriod: KODIAK SEPTEMBER .4% CONDNS WB=>MCDB,6.2345328293E-002,7.4064064234E-002,Pass,Pass,0.3360707556,3.1566300389,Pass,Pass
 Warmup Convergence Information,ZONE WAREHOUSE FINE A END_B - STORY GROUND,SizingPeriod: KODIAK SEPTEMBER .4% CONDNS WB=>MCDB,9.2293708197E-002,0.1149730946,Pass,Pass,8.2329937256E-002,0.2588931089,Pass,Pass
 Warmup Convergence Information,ZONE WAREHOUSE FINE B  - STORY GROUND,SizingPeriod: KODIAK SEPTEMBER .4% CONDNS WB=>MCDB,3.1366453121E-002,2.0643062316E-002,Pass,Pass,6.6945781364E-003,4.6361234193E-003,Pass,Pass
 Warmup Convergence Information,ZONE WAREHOUSE FINE B END_B - STORY GROUND,SizingPeriod: KODIAK SEPTEMBER .4% CONDNS WB=>MCDB,7.2970825210E-002,8.7193499593E-002,Pass,Pass,3.7707744074E-002,0.1287522740,Pass,Pass
 Warmup Convergence Information,ZONE WAREHOUSE FINE C  - STORY GROUND,SizingPeriod: KODIAK SEPTEMBER .4% CONDNS WB=>MCDB,4.3019438095E-002,2.7708418204E-002,Pass,Pass,1.5187376759E-002,1.4776310922E-002,Pass,Pass
 Warmup Convergence Information,ZONE WAREHOUSE FINE C END_B - STORY GROUND,SizingPeriod: KODIAK SEPTEMBER .4% CONDNS WB=>MCDB,8.2632532989E-002,8.2842338173E-002,Pass,Pass,1.7346632648E-002,4.4523358425E-002,Pass,Pass
 Warmup Convergence Information,ZONE WAREHOUSE OFFICE A  - STORY GROUND,SizingPeriod: KODIAK SEPTEMBER .4% CONDNS WB=>MCDB,4.1621129906E-002,0.1083156083,Pass,Pass,0.1886737078,0.9968723879,Pass,Pass
 Warmup Convergence Information,ZONE WAREHOUSE OFFICE B  - STORY GROUND,SizingPeriod: KODIAK SEPTEMBER .4% CONDNS WB=>MCDB,5.1064121930E-002,0.1520536808,Pass,Pass,0.1426909077,0.7877656323,Pass,Pass
 Warmup Convergence Information,ZONE WAREHOUSE OFFICE C  - STORY GROUND,SizingPeriod: KODIAK SEPTEMBER .4% CONDNS WB=>MCDB,3.2052733032E-002,2.2741356562E-002,Pass,Pass,2.2005450522E-002,5.9252333463E-002,Pass,Pass
Environment,KODIAK ANN CLG .4% CONDNS DB=>MWB HVAC Sizing Pass 1,SizingPeriod:DesignDay,08/21,08/21,SummerDesignDay,1,N/A,N/A,N/A,N/A,N/A,N/A,Clark and Allen
Environment:Daylight Saving,No,SizingPeriod:DesignDay
Environment,KODIAK ANN CLG .4% CONDNS WB=>MDB HVAC Sizing Pass 1,SizingPeriod:DesignDay,08/21,08/21,SummerDesignDay,1,N/A,N/A,N/A,N/A,N/A,N/A,Clark and Allen
Environment:Daylight Saving,No,SizingPeriod:DesignDay
Environment,KODIAK ANN HTG 99.6% CONDNS DB HVAC Sizing Pass 1,SizingPeriod:DesignDay,01/21,01/21,WinterDesignDay,1,N/A,N/A,N/A,N/A,N/A,N/A,Clark and Allen
Environment:Daylight Saving,No,SizingPeriod:DesignDay
Environment,KODIAK APRIL .4% CONDNS DB=>MCWB HVAC Sizing Pass 1,SizingPeriod:DesignDay,04/21,04/21,SummerDesignDay,1,N/A,N/A,N/A,N/A,N/A,N/A,Clark and Allen
Environment:Daylight Saving,No,SizingPeriod:DesignDay
Environment,KODIAK APRIL .4% CONDNS WB=>MCDB HVAC Sizing Pass 1,SizingPeriod:DesignDay,04/21,04/21,SummerDesignDay,1,N/A,N/A,N/A,N/A,N/A,N/A,Clark and Allen
Environment:Daylight Saving,No,SizingPeriod:DesignDay
Environment,KODIAK AUGUST .4% CONDNS DB=>MCWB HVAC Sizing Pass 1,SizingPeriod:DesignDay,08/21,08/21,SummerDesignDay,1,N/A,N/A,N/A,N/A,N/A,N/A,Clark and Allen
Environment:Daylight Saving,No,SizingPeriod:DesignDay
Environment,KODIAK AUGUST .4% CONDNS WB=>MCDB HVAC Sizing Pass 1,SizingPeriod:DesignDay,08/21,08/21,SummerDesignDay,1,N/A,N/A,N/A,N/A,N/A,N/A,Clark and Allen
Environment:Daylight Saving,No,SizingPeriod:DesignDay
Environment,KODIAK DECEMBER .4% CONDNS DB=>MCWB HVAC Sizing Pass 1,SizingPeriod:DesignDay,12/21,12/21,SummerDesignDay,1,N/A,N/A,N/A,N/A,N/A,N/A,Clark and Allen
Environment:Daylight Saving,No,SizingPeriod:DesignDay
Environment,KODIAK DECEMBER .4% CONDNS WB=>MCDB HVAC Sizing Pass 1,SizingPeriod:DesignDay,12/21,12/21,SummerDesignDay,1,N/A,N/A,N/A,N/A,N/A,N/A,Clark and Allen
Environment:Daylight Saving,No,SizingPeriod:DesignDay
Environment,KODIAK FEBRUARY .4% CONDNS DB=>MCWB HVAC Sizing Pass 1,SizingPeriod:DesignDay,02/21,02/21,SummerDesignDay,1,N/A,N/A,N/A,N/A,N/A,N/A,Clark and Allen
Environment:Daylight Saving,No,SizingPeriod:DesignDay
Environment,KODIAK FEBRUARY .4% CONDNS WB=>MCDB HVAC Sizing Pass 1,SizingPeriod:DesignDay,02/21,02/21,SummerDesignDay,1,N/A,N/A,N/A,N/A,N/A,N/A,Clark and Allen
Environment:Daylight Saving,No,SizingPeriod:DesignDay
Environment,KODIAK JANUARY .4% CONDNS DB=>MCWB HVAC Sizing Pass 1,SizingPeriod:DesignDay,01/21,01/21,SummerDesignDay,1,N/A,N/A,N/A,N/A,N/A,N/A,Clark and Allen
Environment:Daylight Saving,No,SizingPeriod:DesignDay
Environment,KODIAK JANUARY .4% CONDNS WB=>MCDB HVAC Sizing Pass 1,SizingPeriod:DesignDay,01/21,01/21,SummerDesignDay,1,N/A,N/A,N/A,N/A,N/A,N/A,Clark and Allen
Environment:Daylight Saving,No,SizingPeriod:DesignDay
Environment,KODIAK JULY .4% CONDNS DB=>MCWB HVAC Sizing Pass 1,SizingPeriod:DesignDay,07/21,07/21,SummerDesignDay,1,N/A,N/A,N/A,N/A,N/A,N/A,Clark and Allen
Environment:Daylight Saving,No,SizingPeriod:DesignDay
Environment,KODIAK JULY .4% CONDNS WB=>MCDB HVAC Sizing Pass 1,SizingPeriod:DesignDay,07/21,07/21,SummerDesignDay,1,N/A,N/A,N/A,N/A,N/A,N/A,Clark and Allen
Environment:Daylight Saving,No,SizingPeriod:DesignDay
Environment,KODIAK JUNE .4% CONDNS DB=>MCWB HVAC Sizing Pass 1,SizingPeriod:DesignDay,06/21,06/21,SummerDesignDay,1,N/A,N/A,N/A,N/A,N/A,N/A,Clark and Allen
Environment:Daylight Saving,No,SizingPeriod:DesignDay
Environment,KODIAK JUNE .4% CONDNS WB=>MCDB HVAC Sizing Pass 1,SizingPeriod:DesignDay,06/21,06/21,SummerDesignDay,1,N/A,N/A,N/A,N/A,N/A,N/A,Clark and Allen
Environment:Daylight Saving,No,SizingPeriod:DesignDay
Environment,KODIAK MARCH .4% CONDNS DB=>MCWB HVAC Sizing Pass 1,SizingPeriod:DesignDay,03/21,03/21,SummerDesignDay,1,N/A,N/A,N/A,N/A,N/A,N/A,Clark and Allen
Environment:Daylight Saving,No,SizingPeriod:DesignDay
Environment,KODIAK MARCH .4% CONDNS WB=>MCDB HVAC Sizing Pass 1,SizingPeriod:DesignDay,03/21,03/21,SummerDesignDay,1,N/A,N/A,N/A,N/A,N/A,N/A,Clark and Allen
Environment:Daylight Saving,No,SizingPeriod:DesignDay
Environment,KODIAK MAY .4% CONDNS DB=>MCWB HVAC Sizing Pass 1,SizingPeriod:DesignDay,05/21,05/21,SummerDesignDay,1,N/A,N/A,N/A,N/A,N/A,N/A,Clark and Allen
Environment:Daylight Saving,No,SizingPeriod:DesignDay
Environment,KODIAK MAY .4% CONDNS WB=>MCDB HVAC Sizing Pass 1,SizingPeriod:DesignDay,05/21,05/21,SummerDesignDay,1,N/A,N/A,N/A,N/A,N/A,N/A,Clark and Allen
Environment:Daylight Saving,No,SizingPeriod:DesignDay
Environment,KODIAK NOVEMBER .4% CONDNS DB=>MCWB HVAC Sizing Pass 1,SizingPeriod:DesignDay,11/21,11/21,SummerDesignDay,1,N/A,N/A,N/A,N/A,N/A,N/A,Clark and Allen
Environment:Daylight Saving,No,SizingPeriod:DesignDay
Environment,KODIAK NOVEMBER .4% CONDNS WB=>MCDB HVAC Sizing Pass 1,SizingPeriod:DesignDay,11/21,11/21,SummerDesignDay,1,N/A,N/A,N/A,N/A,N/A,N/A,Clark and Allen
Environment:Daylight Saving,No,SizingPeriod:DesignDay
Environment,KODIAK OCTOBER .4% CONDNS DB=>MCWB HVAC Sizing Pass 1,SizingPeriod:DesignDay,10/21,10/21,SummerDesignDay,1,N/A,N/A,N/A,N/A,N/A,N/A,Clark and Allen
Environment:Daylight Saving,No,SizingPeriod:DesignDay
Environment,KODIAK OCTOBER .4% CONDNS WB=>MCDB HVAC Sizing Pass 1,SizingPeriod:DesignDay,10/21,10/21,SummerDesignDay,1,N/A,N/A,N/A,N/A,N/A,N/A,Clark and Allen
Environment:Daylight Saving,No,SizingPeriod:DesignDay
Environment,KODIAK SEPTEMBER .4% CONDNS DB=>MCWB HVAC Sizing Pass 1,SizingPeriod:DesignDay,09/21,09/21,SummerDesignDay,1,N/A,N/A,N/A,N/A,N/A,N/A,Clark and Allen
Environment:Daylight Saving,No,SizingPeriod:DesignDay
Environment,KODIAK SEPTEMBER .4% CONDNS WB=>MCDB HVAC Sizing Pass 1,SizingPeriod:DesignDay,09/21,09/21,SummerDesignDay,1,N/A,N/A,N/A,N/A,N/A,N/A,Clark and Allen
Environment:Daylight Saving,No,SizingPeriod:DesignDay
! <Program Control Information:Threads/Parallel Sims>, Threading Supported,Maximum Number of Threads, Env Set Threads (OMP_NUM_THREADS), EP Env Set Threads (EP_OMP_NUM_THREADS), IDF Set Threads, Number of Threads Used (Interior Radiant Exchange), Number Nominal Surfaces, Number Parallel Sims
Program Control:Threads/Parallel Sims, No,1, N/A, N/A, N/A, N/A, N/A, N/A
End of Data
