Program Version,EnergyPlus, Version 22.2.0-aa78da9668, YMD=2023.04.03 14:43
! <Version>, Version ID
 Version, 22.2
! <Timesteps per Hour>, #TimeSteps, Minutes per TimeStep {minutes}
 Timesteps per Hour,  6, 10
! <System Convergence Limits>, Minimum System TimeStep {minutes}, Max HVAC Iterations, Minimum Plant Iterations, Maximum Plant Iterations
 System Convergence Limits, 1, 20, 2, 8
! <Simulation Control>, Do Zone Sizing, Do System Sizing, Do Plant Sizing, Do Design Days, Do Weather Simulation, Do HVAC Sizing Simulation
 Simulation Control, Yes, Yes, Yes, Yes, No, Yes
! <Performance Precision Tradeoffs>, Use Coil Direct Simulation, Zone Radiant Exchange Algorithm, Override Mode, Number of Timestep In Hour, Force Euler Method, Minimum Number of Warmup Days, Force Suppress All Begin Environment Resets, Minimum System Timestep, MaxZoneTempDiff, MaxAllowedDelTemp
 Performance Precision Tradeoffs, No, ScriptF, Normal, 6, No, 1, No, 1.0, 0.300, 2.0000E-003
! <Output Reporting Tolerances>, Tolerance for Time Heating Setpoint Not Met, Tolerance for Zone Cooling Setpoint Not Met Time
 Output Reporting Tolerances, 0.200, 0.200, 
! <Site:GroundTemperature:BuildingSurface>,Jan{C},Feb{C},Mar{C},Apr{C},May{C},Jun{C},Jul{C},Aug{C},Sep{C},Oct{C},Nov{C},Dec{C}
 Site:GroundTemperature:BuildingSurface,  18.00,  18.00,  18.00,  18.00,  18.00,  18.00,  18.00,  18.00,  18.00,  18.00,  18.00,  18.00
! <Site:GroundTemperature:FCfactorMethod>,Jan{C},Feb{C},Mar{C},Apr{C},May{C},Jun{C},Jul{C},Aug{C},Sep{C},Oct{C},Nov{C},Dec{C}
 Site:GroundTemperature:FCfactorMethod,  -3.10, -17.70, -19.30, -17.60, -15.40, -10.30,   0.70,  10.60,  16.00,  16.90,  14.20,   6.70
! <Site:GroundTemperature:Shallow>,Jan{C},Feb{C},Mar{C},Apr{C},May{C},Jun{C},Jul{C},Aug{C},Sep{C},Oct{C},Nov{C},Dec{C}
 Site:GroundTemperature:Shallow,  13.00,  13.00,  13.00,  13.00,  13.00,  13.00,  13.00,  13.00,  13.00,  13.00,  13.00,  13.00
! <Site:GroundTemperature:Deep>,Jan{C},Feb{C},Mar{C},Apr{C},May{C},Jun{C},Jul{C},Aug{C},Sep{C},Oct{C},Nov{C},Dec{C}
 Site:GroundTemperature:Deep,  16.00,  16.00,  16.00,  16.00,  16.00,  16.00,  16.00,  16.00,  16.00,  16.00,  16.00,  16.00
! <Site:GroundReflectance>,Jan{dimensionless},Feb{dimensionless},Mar{dimensionless},Apr{dimensionless},May{dimensionless},Jun{dimensionless},Jul{dimensionless},Aug{dimensionless},Sep{dimensionless},Oct{dimensionless},Nov{dimensionless},Dec{dimensionless}
 Site:GroundReflectance,  0.20,  0.20,  0.20,  0.20,  0.20,  0.20,  0.20,  0.20,  0.20,  0.20,  0.20,  0.20
! <Site:GroundReflectance:SnowModifier>, Normal, Daylighting {dimensionless}
 Site:GroundReflectance:SnowModifier,   1.000,   1.000
! <Site:GroundReflectance:Snow>,Jan{dimensionless},Feb{dimensionless},Mar{dimensionless},Apr{dimensionless},May{dimensionless},Jun{dimensionless},Jul{dimensionless},Aug{dimensionless},Sep{dimensionless},Oct{dimensionless},Nov{dimensionless},Dec{dimensionless}
 Site:GroundReflectance:Snow,  0.20,  0.20,  0.20,  0.20,  0.20,  0.20,  0.20,  0.20,  0.20,  0.20,  0.20,  0.20
! <Site:GroundReflectance:Snow:Daylighting>,Jan{dimensionless},Feb{dimensionless},Mar{dimensionless},Apr{dimensionless},May{dimensionless},Jun{dimensionless},Jul{dimensionless},Aug{dimensionless},Sep{dimensionless},Oct{dimensionless},Nov{dimensionless},Dec{dimensionless}
 Site:GroundReflectance:Snow:Daylighting,  0.20,  0.20,  0.20,  0.20,  0.20,  0.20,  0.20,  0.20,  0.20,  0.20,  0.20,  0.20
! <Environment:Weather Station>,Wind Sensor Height Above Ground {m},Wind Speed Profile Exponent {},Wind Speed Profile Boundary Layer Thickness {m},Air Temperature Sensor Height Above Ground {m},Wind Speed Modifier Coefficient-Internal,Temperature Modifier Coefficient-Internal
Environment:Weather Station,10.000,0.140,270.000,1.500,1.586,9.750E-003
! <Site:Location>, Location Name, Latitude {N+/S- Deg}, Longitude {E+/W- Deg},  Time Zone Number {GMT+/-}, Elevation {m},  Standard Pressure at Elevation {Pa}, Standard RhoAir at Elevation
Site:Location,Kodiak AK USA customized weather file WMO#=703500,57.75,-152.49,-9.00,34.00,100917,1.1995
! <Site Water Mains Temperature Information>,Calculation Method{},Water Mains Temperature Schedule Name{},Annual Average Outdoor Air Temperature{C},Maximum Difference In Monthly Average Outdoor Air Temperatures{deltaC},Fixed Default Water Mains Temperature{C}
Site Water Mains Temperature Information,Correlation,NA,-1.53,36.20,NA
! <Building Information>, Building Name,North Axis {deg},Terrain,  Loads Convergence Tolerance Value,Temperature Convergence Tolerance Value,  Solar Distribution,Maximum Number of Warmup Days,Minimum Number of Warmup Days
 Building Information,90.1-2007|Warehouse,0.000,Urban,4.00000E-002,0.20000,FullInteriorAndExterior,25,6
! <Inside Convection Algorithm>, Algorithm {Simple | TARP | CeilingDiffuser | AdaptiveConvectionAlgorithm}
Inside Convection Algorithm,TARP
! <Outside Convection Algorithm>, Algorithm {SimpleCombined | TARP | MoWitt | DOE-2 | AdaptiveConvectionAlgorithm}
Outside Convection Algorithm,TARP
! <Sky Radiance Distribution>, Value {Anisotropic}
Sky Radiance Distribution,Anisotropic
! <Zone Air Solution Algorithm>, Value {ThirdOrderBackwardDifference | AnalyticalSolution | EulerMethod}
 Zone Air Solution Algorithm, ThirdOrderBackwardDifference
! <Zone Air Carbon Dioxide Balance Simulation>, Simulation {Yes/No}, Carbon Dioxide Concentration
 Zone Air Carbon Dioxide Balance Simulation, No,N/A
! <Zone Air Generic Contaminant Balance Simulation>, Simulation {Yes/No}, Generic Contaminant Concentration
 Zone Air Generic Contaminant Balance Simulation, No,N/A
! <Zone Air Mass Flow Balance Simulation>, Enforce Mass Balance, Adjust Zone Mixing and Return {AdjustMixingOnly | AdjustReturnOnly | AdjustMixingThenReturn | AdjustReturnThenMixing | None}, Adjust Zone Infiltration {AddInfiltration | AdjustInfiltration | None}, Infiltration Zones {MixingSourceZonesOnly | AllZones}
 Zone Air Mass Flow Balance Simulation, No,N/A,N/A,N/A
! <HVACSystemRootFindingAlgorithm>, Value {RegulaFalsi | Bisection | BisectionThenRegulaFalsi | RegulaFalsiThenBisection}
 HVACSystemRootFindingAlgorithm, RegulaFalsi
! <Environment:Site Atmospheric Variation>,Wind Speed Profile Exponent {},Wind Speed Profile Boundary Layer Thickness {m},Air Temperature Gradient Coefficient {K/m}
Environment:Site Atmospheric Variation,0.220,370.000,6.500000E-003
! <Surface Geometry>,Starting Corner,Vertex Input Direction,Coordinate System,Daylight Reference Point Coordinate System,Rectangular (Simple) Surface Coordinate System
 Surface Geometry,UpperLeftCorner,Counterclockwise,RelativeCoordinateSystem,RelativeCoordinateSystem,RelativeToZoneOrigin
! <Surface Heat Transfer Algorithm>, Value {CTF - ConductionTransferFunction | EMPD - MoisturePenetrationDepthConductionTransferFunction | CondFD - ConductionFiniteDifference | HAMT - CombinedHeatAndMoistureFiniteElement} - Description,Inside Surface Max Temperature Limit{C}, Surface Convection Coefficient Lower Limit {W/m2-K}, Surface Convection Coefficient Upper Limit {W/m2-K}
Surface Heat Transfer Algorithm, CTF - ConductionTransferFunction,200,0.10,1000.0
! <Shading Summary>, Number of Fixed Detached Shades, Number of Building Detached Shades, Number of Attached Shades
 Shading Summary,0,0,0
! <Zone Summary>, Number of Zones, Number of Zone Surfaces, Number of SubSurfaces
 Zone Summary,15,106,16
! <Zone Information>,Zone Name,North Axis {deg},Origin X-Coordinate {m},Origin Y-Coordinate {m},Origin Z-Coordinate {m},Centroid X-Coordinate {m},Centroid Y-Coordinate {m},Centroid Z-Coordinate {m},Type,Zone Multiplier,Zone List Multiplier,Minimum X {m},Maximum X {m},Minimum Y {m},Maximum Y {m},Minimum Z {m},Maximum Z {m},Ceiling Height {m},Volume {m3},Zone Inside Convection Algorithm {Simple-Detailed-CeilingDiffuser-TrombeWall},Zone Outside Convection Algorithm {Simple-Detailed-Tarp-MoWitt-DOE-2-BLAST}, Floor Area {m2},Exterior Gross Wall Area {m2},Exterior Net Wall Area {m2},Exterior Window Area {m2}, Number of Surfaces, Number of SubSurfaces, Number of Shading SubSurfaces,  Part of Total Building Area
 Zone Information, ZONE WAREHOUSE BULK A  - STORY GROUND,0.0,-11.27,-10.56,0.00,-3.05,-8.27,3.51,1,1,1,-11.27,5.16,-10.56,-5.99,0.00,7.01,7.01,526.37,TARP,TARP,75.08,115.13,109.37,5.76,6,1,0,Yes
 Zone Information, ZONE WAREHOUSE BULK A END_A - STORY GROUND,0.0,-15.84,-10.56,0.00,-13.55,-8.27,3.51,1,1,1,-15.84,-11.27,-10.56,-5.99,0.00,7.01,7.01,146.54,TARP,TARP,20.90,64.10,60.90,3.21,6,2,0,Yes
 Zone Information, ZONE WAREHOUSE BULK B  - STORY GROUND,0.0,-11.27,-5.99,0.00,-3.05,1.89E-014,3.51,1,1,1,-11.27,5.16,-5.99,5.99,0.00,7.01,7.01,1378.47,TARP,TARP,196.63,0.00,0.00,0.00,6,0,0,Yes
 Zone Information, ZONE WAREHOUSE BULK B END_A - STORY GROUND,0.0,-15.84,-5.99,0.00,-13.55,1.91E-014,3.51,1,1,1,-15.84,-11.27,-5.99,5.99,0.00,7.01,7.01,383.76,TARP,TARP,54.74,83.94,79.74,4.20,6,1,0,Yes
 Zone Information, ZONE WAREHOUSE BULK C  - STORY GROUND,0.0,-11.27,5.99,0.00,-3.05,8.27,3.51,1,1,1,-11.27,5.16,5.99,10.56,0.00,7.01,7.01,526.37,TARP,TARP,75.08,115.13,109.37,5.76,6,1,0,Yes
 Zone Information, ZONE WAREHOUSE BULK C END_A - STORY GROUND,0.0,-15.84,5.99,0.00,-13.55,8.27,3.51,1,1,1,-15.84,-11.27,5.99,10.56,0.00,7.01,7.01,146.54,TARP,TARP,20.90,64.10,60.90,3.21,6,2,0,Yes
 Zone Information, ZONE WAREHOUSE FINE A  - STORY GROUND,0.0,6.71,-10.56,0.00,8.99,-8.27,3.51,1,1,1,6.71,11.27,-10.56,-5.99,0.00,7.01,7.01,146.06,TARP,TARP,20.83,31.95,30.35,1.60,6,1,0,Yes
 Zone Information, ZONE WAREHOUSE FINE A END_B - STORY GROUND,0.0,11.27,-10.56,0.00,13.55,-8.27,3.51,1,1,1,11.27,15.84,-10.56,-5.99,0.00,7.01,7.01,146.54,TARP,TARP,20.90,64.10,60.90,3.21,6,2,0,Yes
 Zone Information, ZONE WAREHOUSE FINE B  - STORY GROUND,0.0,6.71,-5.99,0.00,8.99,1.90E-014,3.51,1,1,1,6.71,11.27,-5.99,5.99,0.00,7.01,7.01,382.50,TARP,TARP,54.56,0.00,0.00,0.00,6,0,0,Yes
 Zone Information, ZONE WAREHOUSE FINE B END_B - STORY GROUND,0.0,11.27,-5.99,0.00,13.55,1.90E-014,3.51,1,1,1,11.27,15.84,-5.99,5.99,0.00,7.01,7.01,383.76,TARP,TARP,54.74,83.94,79.74,4.20,6,1,0,Yes
 Zone Information, ZONE WAREHOUSE FINE C  - STORY GROUND,0.0,6.71,5.99,0.00,8.99,8.27,3.51,1,1,1,6.71,11.27,5.99,10.56,0.00,7.01,7.01,146.06,TARP,TARP,20.83,31.95,30.35,1.60,6,1,0,Yes
 Zone Information, ZONE WAREHOUSE FINE C END_B - STORY GROUND,0.0,11.27,5.99,0.00,13.55,8.27,3.51,1,1,1,11.27,15.84,5.99,10.56,0.00,7.01,7.01,146.54,TARP,TARP,20.90,64.10,60.90,3.21,6,2,0,Yes
 Zone Information, ZONE WAREHOUSE OFFICE A  - STORY GROUND,0.0,5.16,-10.56,0.00,5.93,-8.27,3.51,1,1,1,5.16,6.71,-10.56,-5.99,0.00,7.01,7.01,49.75,TARP,TARP,7.10,10.88,10.34,0.54,6,1,0,Yes
 Zone Information, ZONE WAREHOUSE OFFICE B  - STORY GROUND,0.0,5.16,-5.99,0.00,5.93,1.92E-014,3.51,1,1,1,5.16,6.71,-5.99,5.99,0.00,7.01,7.01,130.28,TARP,TARP,18.58,0.00,0.00,0.00,6,0,0,Yes
 Zone Information, ZONE WAREHOUSE OFFICE C  - STORY GROUND,0.0,5.16,5.99,0.00,5.93,8.27,3.51,1,1,1,5.16,6.71,5.99,10.56,0.00,7.01,7.01,49.75,TARP,TARP,7.10,10.88,10.34,0.54,6,1,0,Yes
! <Zone Internal Gains Nominal>,Zone Name, Floor Area {m2},# Occupants,Area per Occupant {m2/person},Occupant per Area {person/m2},Interior Lighting {W/m2},Electric Load {W/m2},Gas Load {W/m2},Other Load {W/m2},Hot Water Eq {W/m2},Steam Equipment {W/m2},Sum Loads per Area {W/m2},Outdoor Controlled Baseboard Heat
 Zone Internal Gains Nominal, ZONE WAREHOUSE BULK A  - STORY GROUND,75.08,0.0,N/A,0.000,9.688,2.558,0.000,0.000,0.000,0.000,12.246,No
 Zone Internal Gains Nominal, ZONE WAREHOUSE BULK A END_A - STORY GROUND,20.90,0.0,N/A,0.000,9.688,2.558,0.000,0.000,0.000,0.000,12.246,No
 Zone Internal Gains Nominal, ZONE WAREHOUSE BULK B  - STORY GROUND,196.63,0.0,N/A,0.000,9.688,2.558,0.000,0.000,0.000,0.000,12.246,No
 Zone Internal Gains Nominal, ZONE WAREHOUSE BULK B END_A - STORY GROUND,54.74,0.0,N/A,0.000,9.688,2.558,0.000,0.000,0.000,0.000,12.246,No
 Zone Internal Gains Nominal, ZONE WAREHOUSE BULK C  - STORY GROUND,75.08,0.0,N/A,0.000,9.688,2.558,0.000,0.000,0.000,0.000,12.246,No
 Zone Internal Gains Nominal, ZONE WAREHOUSE BULK C END_A - STORY GROUND,20.90,0.0,N/A,0.000,9.688,2.558,0.000,0.000,0.000,0.000,12.246,No
 Zone Internal Gains Nominal, ZONE WAREHOUSE FINE A  - STORY GROUND,20.83,0.0,N/A,0.000,15.069,0.000,0.000,0.000,0.000,0.000,15.069,No
 Zone Internal Gains Nominal, ZONE WAREHOUSE FINE A END_B - STORY GROUND,20.90,0.0,N/A,0.000,15.069,0.000,0.000,0.000,0.000,0.000,15.069,No
 Zone Internal Gains Nominal, ZONE WAREHOUSE FINE B  - STORY GROUND,54.56,0.0,N/A,0.000,15.069,0.000,0.000,0.000,0.000,0.000,15.069,No
 Zone Internal Gains Nominal, ZONE WAREHOUSE FINE B END_B - STORY GROUND,54.74,0.0,N/A,0.000,15.069,0.000,0.000,0.000,0.000,0.000,15.069,No
 Zone Internal Gains Nominal, ZONE WAREHOUSE FINE C  - STORY GROUND,20.83,0.0,N/A,0.000,15.069,0.000,0.000,0.000,0.000,0.000,15.069,No
 Zone Internal Gains Nominal, ZONE WAREHOUSE FINE C END_B - STORY GROUND,20.90,0.0,N/A,0.000,15.069,0.000,0.000,0.000,0.000,0.000,15.069,No
 Zone Internal Gains Nominal, ZONE WAREHOUSE OFFICE A  - STORY GROUND,7.10,0.1,47.400,2.110E-002,10.764,8.073,0.000,0.000,0.000,0.000,18.837,No
 Zone Internal Gains Nominal, ZONE WAREHOUSE OFFICE B  - STORY GROUND,18.58,0.4,47.400,2.110E-002,10.764,8.073,0.000,0.000,0.000,0.000,18.837,No
 Zone Internal Gains Nominal, ZONE WAREHOUSE OFFICE C  - STORY GROUND,7.10,0.1,47.400,2.110E-002,10.764,8.073,0.000,0.000,0.000,0.000,18.837,No
! <People Internal Gains Nominal>,Name,Schedule Name,Zone Name,Zone Floor Area {m2},# Zone Occupants,Number of People {},People/Floor Area {person/m2},Floor Area per person {m2/person},Fraction Radiant,Fraction Convected,Sensible Fraction Calculation,Activity level,ASHRAE 55 Warnings,Carbon Dioxide Generation Rate,Nominal Minimum Number of People,Nominal Maximum Number of People
 People Internal Gains Nominal, WAREHOUSE OFFICE A  - STORY GROUND WAREHOUSE OFFICE PEOPLE,WAREHOUSE BLDG_OCC_SCH,ZONE WAREHOUSE OFFICE A  - STORY GROUND,7.10,0.1,0.1,2.110E-002,47.400,0.300,0.700,AutoCalculate,WAREHOUSE OFFICE ACTIVITY SCHEDULE,No,3.8200E-008,0,0
 People Internal Gains Nominal, WAREHOUSE OFFICE B  - STORY GROUND WAREHOUSE OFFICE PEOPLE,WAREHOUSE BLDG_OCC_SCH,ZONE WAREHOUSE OFFICE B  - STORY GROUND,18.58,0.4,0.4,2.110E-002,47.400,0.300,0.700,AutoCalculate,WAREHOUSE OFFICE ACTIVITY SCHEDULE,No,3.8200E-008,0,0
 People Internal Gains Nominal, WAREHOUSE OFFICE C  - STORY GROUND WAREHOUSE OFFICE PEOPLE,WAREHOUSE BLDG_OCC_SCH,ZONE WAREHOUSE OFFICE C  - STORY GROUND,7.10,0.1,0.1,2.110E-002,47.400,0.300,0.700,AutoCalculate,WAREHOUSE OFFICE ACTIVITY SCHEDULE,No,3.8200E-008,0,0
! <Lights Internal Gains Nominal>,Name,Schedule Name,Zone Name,Zone Floor Area {m2},# Zone Occupants,Lighting Level {W},Lights/Floor Area {W/m2},Lights per person {W/person},Fraction Return Air,Fraction Radiant,Fraction Short Wave,Fraction Convected,Fraction Replaceable,End-Use Category,Nominal Minimum Lighting Level {W},Nominal Maximum Lighting Level {W}
 Lights Internal Gains Nominal, WAREHOUSE BULK A END_A - STORY GROUND WAREHOUSE BULK LIGHTS,WAREHOUSE BLDG_LIGHT_STORAGE_SCH,ZONE WAREHOUSE BULK A END_A - STORY GROUND,20.90,0.0,202.500,9.688,N/A,0.000,0.420,0.180,0.400,1.000,General,0.000,202.500
 Lights Internal Gains Nominal, WAREHOUSE BULK B END_A - STORY GROUND WAREHOUSE BULK LIGHTS,WAREHOUSE BLDG_LIGHT_STORAGE_SCH,ZONE WAREHOUSE BULK B END_A - STORY GROUND,54.74,0.0,530.307,9.688,N/A,0.000,0.420,0.180,0.400,1.000,General,0.000,530.307
 Lights Internal Gains Nominal, WAREHOUSE BULK A  - STORY GROUND WAREHOUSE BULK LIGHTS,WAREHOUSE BLDG_LIGHT_STORAGE_SCH,ZONE WAREHOUSE BULK A  - STORY GROUND,75.08,0.0,727.383,9.688,N/A,0.000,0.420,0.180,0.400,1.000,General,0.000,727.383
 Lights Internal Gains Nominal, WAREHOUSE BULK C END_A - STORY GROUND WAREHOUSE BULK LIGHTS,WAREHOUSE BLDG_LIGHT_STORAGE_SCH,ZONE WAREHOUSE BULK C END_A - STORY GROUND,20.90,0.0,202.500,9.688,N/A,0.000,0.420,0.180,0.400,1.000,General,0.000,202.500
 Lights Internal Gains Nominal, WAREHOUSE BULK B  - STORY GROUND WAREHOUSE BULK LIGHTS,WAREHOUSE BLDG_LIGHT_STORAGE_SCH,ZONE WAREHOUSE BULK B  - STORY GROUND,196.63,0.0,1904.871,9.688,N/A,0.000,0.420,0.180,0.400,1.000,General,0.000,1904.871
 Lights Internal Gains Nominal, WAREHOUSE BULK C  - STORY GROUND WAREHOUSE BULK LIGHTS,WAREHOUSE BLDG_LIGHT_STORAGE_SCH,ZONE WAREHOUSE BULK C  - STORY GROUND,75.08,0.0,727.383,9.688,N/A,0.000,0.420,0.180,0.400,1.000,General,0.000,727.383
 Lights Internal Gains Nominal, WAREHOUSE FINE C END_B - STORY GROUND WAREHOUSE FINE LIGHTS,WAREHOUSE BLDG_LIGHT_STORAGE_SCH,ZONE WAREHOUSE FINE C END_B - STORY GROUND,20.90,0.0,315.000,15.069,N/A,0.000,0.420,0.180,0.400,1.000,General,0.000,315.000
 Lights Internal Gains Nominal, WAREHOUSE FINE B END_B - STORY GROUND WAREHOUSE FINE LIGHTS,WAREHOUSE BLDG_LIGHT_STORAGE_SCH,ZONE WAREHOUSE FINE B END_B - STORY GROUND,54.74,0.0,824.923,15.069,N/A,0.000,0.420,0.180,0.400,1.000,General,0.000,824.923
 Lights Internal Gains Nominal, WAREHOUSE FINE B  - STORY GROUND WAREHOUSE FINE LIGHTS,WAREHOUSE BLDG_LIGHT_STORAGE_SCH,ZONE WAREHOUSE FINE B  - STORY GROUND,54.56,0.0,822.207,15.069,N/A,0.000,0.420,0.180,0.400,1.000,General,0.000,822.207
 Lights Internal Gains Nominal, WAREHOUSE FINE A END_B - STORY GROUND WAREHOUSE FINE LIGHTS,WAREHOUSE BLDG_LIGHT_STORAGE_SCH,ZONE WAREHOUSE FINE A END_B - STORY GROUND,20.90,0.0,315.000,15.069,N/A,0.000,0.420,0.180,0.400,1.000,General,0.000,315.000
 Lights Internal Gains Nominal, WAREHOUSE FINE A  - STORY GROUND WAREHOUSE FINE LIGHTS,WAREHOUSE BLDG_LIGHT_STORAGE_SCH,ZONE WAREHOUSE FINE A  - STORY GROUND,20.83,0.0,313.963,15.069,N/A,0.000,0.420,0.180,0.400,1.000,General,0.000,313.963
 Lights Internal Gains Nominal, WAREHOUSE FINE C  - STORY GROUND WAREHOUSE FINE LIGHTS,WAREHOUSE BLDG_LIGHT_STORAGE_SCH,ZONE WAREHOUSE FINE C  - STORY GROUND,20.83,0.0,313.963,15.069,N/A,0.000,0.420,0.180,0.400,1.000,General,0.000,313.963
 Lights Internal Gains Nominal, WAREHOUSE OFFICE A  - STORY GROUND WAREHOUSE OFFICE LIGHTS,WAREHOUSE BLDG_LIGHT_OFFICE_SCH,ZONE WAREHOUSE OFFICE A  - STORY GROUND,7.10,0.1,76.383,10.764,510.204,0.000,0.370,0.180,0.450,1.000,General,0.000,76.383
 Lights Internal Gains Nominal, WAREHOUSE OFFICE B  - STORY GROUND WAREHOUSE OFFICE LIGHTS,WAREHOUSE BLDG_LIGHT_OFFICE_SCH,ZONE WAREHOUSE OFFICE B  - STORY GROUND,18.58,0.4,200.033,10.764,510.204,0.000,0.370,0.180,0.450,1.000,General,0.000,200.033
 Lights Internal Gains Nominal, WAREHOUSE OFFICE C  - STORY GROUND WAREHOUSE OFFICE LIGHTS,WAREHOUSE BLDG_LIGHT_OFFICE_SCH,ZONE WAREHOUSE OFFICE C  - STORY GROUND,7.10,0.1,76.383,10.764,510.204,0.000,0.370,0.180,0.450,1.000,General,0.000,76.383
! <ElectricEquipment Internal Gains Nominal>,Name,Schedule Name,Zone Name,Zone Floor Area {m2},# Zone Occupants,Equipment Level {W},Equipment/Floor Area {W/m2},Equipment per person {W/person},Fraction Latent,Fraction Radiant,Fraction Lost,Fraction Convected,End-Use SubCategory,Nominal Minimum Equipment Level {W},Nominal Maximum Equipment Level {W}
 ElectricEquipment Internal Gains Nominal, WAREHOUSE BULK A END_A - STORY GROUND WAREHOUSE BULK ELEC EQUIP,WAREHOUSE BLDG EQUIP,ZONE WAREHOUSE BULK A END_A - STORY GROUND,20.90,0.0,53.479,2.558,N/A,0.000,0.500,0.000,0.500,General,0.000,53.479
 ElectricEquipment Internal Gains Nominal, WAREHOUSE BULK B END_A - STORY GROUND WAREHOUSE BULK ELEC EQUIP,WAREHOUSE BLDG EQUIP,ZONE WAREHOUSE BULK B END_A - STORY GROUND,54.74,0.0,140.051,2.558,N/A,0.000,0.500,0.000,0.500,General,0.000,140.051
 ElectricEquipment Internal Gains Nominal, WAREHOUSE BULK A  - STORY GROUND WAREHOUSE BULK ELEC EQUIP,WAREHOUSE BLDG EQUIP,ZONE WAREHOUSE BULK A  - STORY GROUND,75.08,0.0,192.097,2.558,N/A,0.000,0.500,0.000,0.500,General,0.000,192.097
 ElectricEquipment Internal Gains Nominal, WAREHOUSE BULK C END_A - STORY GROUND WAREHOUSE BULK ELEC EQUIP,WAREHOUSE BLDG EQUIP,ZONE WAREHOUSE BULK C END_A - STORY GROUND,20.90,0.0,53.479,2.558,N/A,0.000,0.500,0.000,0.500,General,0.000,53.479
 ElectricEquipment Internal Gains Nominal, WAREHOUSE BULK B  - STORY GROUND WAREHOUSE BULK ELEC EQUIP,WAREHOUSE BLDG EQUIP,ZONE WAREHOUSE BULK B  - STORY GROUND,196.63,0.0,503.065,2.558,N/A,0.000,0.500,0.000,0.500,General,0.000,503.065
 ElectricEquipment Internal Gains Nominal, WAREHOUSE BULK C  - STORY GROUND WAREHOUSE BULK ELEC EQUIP,WAREHOUSE BLDG EQUIP,ZONE WAREHOUSE BULK C  - STORY GROUND,75.08,0.0,192.097,2.558,N/A,0.000,0.500,0.000,0.500,General,0.000,192.097
 ElectricEquipment Internal Gains Nominal, WAREHOUSE OFFICE A  - STORY GROUND WAREHOUSE OFFICE ELEC EQUIP,WAREHOUSE OFFICE_PLUG_SCH,ZONE WAREHOUSE OFFICE A  - STORY GROUND,7.10,0.1,57.288,8.073,382.653,0.000,0.500,0.000,0.500,General,0.000,57.288
 ElectricEquipment Internal Gains Nominal, WAREHOUSE OFFICE B  - STORY GROUND WAREHOUSE OFFICE ELEC EQUIP,WAREHOUSE OFFICE_PLUG_SCH,ZONE WAREHOUSE OFFICE B  - STORY GROUND,18.58,0.4,150.025,8.073,382.653,0.000,0.500,0.000,0.500,General,0.000,150.025
 ElectricEquipment Internal Gains Nominal, WAREHOUSE OFFICE C  - STORY GROUND WAREHOUSE OFFICE ELEC EQUIP,WAREHOUSE OFFICE_PLUG_SCH,ZONE WAREHOUSE OFFICE C  - STORY GROUND,7.10,0.1,57.288,8.073,382.653,0.000,0.500,0.000,0.500,General,0.000,57.288
! <Shadowing/Sun Position Calculations Annual Simulations>, Shading Calculation Method, Shading Calculation Update Frequency Method, Shading Calculation Update Frequency {days}, Maximum Figures in Shadow Overlap Calculations {}, Polygon Clipping Algorithm, Pixel Counting Resolution, Sky Diffuse Modeling Algorithm, Output External Shading Calculation Results, Disable Self-Shading Within Shading Zone Groups, Disable Self-Shading From Shading Zone Groups to Other Zones
Shadowing/Sun Position Calculations Annual Simulations,PolygonClipping,Periodic,30,15000,SutherlandHodgman,512,SimpleSkyDiffuseModeling,No,No,No
! <Water Heater Information>,Type,Name,Volume {m3},Maximum Capacity {W},Standard Rated Recovery Efficiency, Standard Rated Energy Factor
! <ZoneInfiltration Airflow Stats Nominal>,Name,Schedule Name,Zone Name, Zone Floor Area {m2}, # Zone Occupants,Design Volume Flow Rate {m3/s},Volume Flow Rate/Floor Area {m3/s-m2},Volume Flow Rate/Exterior Surface Area {m3/s-m2},ACH - Air Changes per Hour,Equation A - Constant Term Coefficient {},Equation B - Temperature Term Coefficient {1/C},Equation C - Velocity Term Coefficient {s/m}, Equation D - Velocity Squared Term Coefficient {s2/m2}
 ZoneInfiltration Airflow Stats Nominal, WAREHOUSE BULK A  - STORY GROUND INFILTRATION,ALWAYS ON DISCRETE,ZONE WAREHOUSE BULK A  - STORY GROUND,75.08,0.0,0.118,1.572E-003,6.205E-004,0.807,0.000,0.000,0.224,0.000
 ZoneInfiltration Airflow Stats Nominal, WAREHOUSE BULK A END_A - STORY GROUND INFILTRATION,ALWAYS ON DISCRETE,ZONE WAREHOUSE BULK A END_A - STORY GROUND,20.90,0.0,6.572E-002,3.144E-003,7.731E-004,1.615,0.000,0.000,0.224,0.000
 ZoneInfiltration Airflow Stats Nominal, WAREHOUSE BULK B END_A - STORY GROUND INFILTRATION,ALWAYS ON DISCRETE,ZONE WAREHOUSE BULK B END_A - STORY GROUND,54.74,0.0,8.605E-002,1.572E-003,6.205E-004,0.807,0.000,0.000,0.224,0.000
 ZoneInfiltration Airflow Stats Nominal, WAREHOUSE BULK C  - STORY GROUND INFILTRATION,ALWAYS ON DISCRETE,ZONE WAREHOUSE BULK C  - STORY GROUND,75.08,0.0,0.118,1.572E-003,6.205E-004,0.807,0.000,0.000,0.224,0.000
 ZoneInfiltration Airflow Stats Nominal, WAREHOUSE BULK C END_A - STORY GROUND INFILTRATION,ALWAYS ON DISCRETE,ZONE WAREHOUSE BULK C END_A - STORY GROUND,20.90,0.0,6.572E-002,3.144E-003,7.731E-004,1.615,0.000,0.000,0.224,0.000
 ZoneInfiltration Airflow Stats Nominal, WAREHOUSE FINE A  - STORY GROUND INFILTRATION,ALWAYS ON DISCRETE,ZONE WAREHOUSE FINE A  - STORY GROUND,20.83,0.0,3.275E-002,1.572E-003,6.205E-004,0.807,0.000,0.000,0.224,0.000
 ZoneInfiltration Airflow Stats Nominal, WAREHOUSE FINE A END_B - STORY GROUND INFILTRATION,ALWAYS ON DISCRETE,ZONE WAREHOUSE FINE A END_B - STORY GROUND,20.90,0.0,6.572E-002,3.144E-003,7.731E-004,1.615,0.000,0.000,0.224,0.000
 ZoneInfiltration Airflow Stats Nominal, WAREHOUSE FINE B END_B - STORY GROUND INFILTRATION,ALWAYS ON DISCRETE,ZONE WAREHOUSE FINE B END_B - STORY GROUND,54.74,0.0,8.605E-002,1.572E-003,6.205E-004,0.807,0.000,0.000,0.224,0.000
 ZoneInfiltration Airflow Stats Nominal, WAREHOUSE FINE C  - STORY GROUND INFILTRATION,ALWAYS ON DISCRETE,ZONE WAREHOUSE FINE C  - STORY GROUND,20.83,0.0,3.275E-002,1.572E-003,6.205E-004,0.807,0.000,0.000,0.224,0.000
 ZoneInfiltration Airflow Stats Nominal, WAREHOUSE FINE C END_B - STORY GROUND INFILTRATION,ALWAYS ON DISCRETE,ZONE WAREHOUSE FINE C END_B - STORY GROUND,20.90,0.0,6.572E-002,3.144E-003,7.731E-004,1.615,0.000,0.000,0.224,0.000
 ZoneInfiltration Airflow Stats Nominal, WAREHOUSE OFFICE A  - STORY GROUND INFILTRATION,ALWAYS ON DISCRETE,ZONE WAREHOUSE OFFICE A  - STORY GROUND,7.10,0.1,1.116E-002,1.572E-003,6.205E-004,0.807,0.000,0.000,0.224,0.000
 ZoneInfiltration Airflow Stats Nominal, WAREHOUSE OFFICE C  - STORY GROUND INFILTRATION,ALWAYS ON DISCRETE,ZONE WAREHOUSE OFFICE C  - STORY GROUND,7.10,0.1,1.116E-002,1.572E-003,6.205E-004,0.807,0.000,0.000,0.224,0.000
! <AirFlow Model>, Simple
 AirFlow Model, Simple
! <RoomAir Model>, Zone Name, Mixing/Mundt/UCSDDV/UCSDCV/UCSDUFI/UCSDUFE/User Defined
RoomAir Model,ZONE WAREHOUSE BULK A  - STORY GROUND,Mixing/Well-Stirred
RoomAir Model,ZONE WAREHOUSE BULK A END_A - STORY GROUND,Mixing/Well-Stirred
RoomAir Model,ZONE WAREHOUSE BULK B  - STORY GROUND,Mixing/Well-Stirred
RoomAir Model,ZONE WAREHOUSE BULK B END_A - STORY GROUND,Mixing/Well-Stirred
RoomAir Model,ZONE WAREHOUSE BULK C  - STORY GROUND,Mixing/Well-Stirred
RoomAir Model,ZONE WAREHOUSE BULK C END_A - STORY GROUND,Mixing/Well-Stirred
RoomAir Model,ZONE WAREHOUSE FINE A  - STORY GROUND,Mixing/Well-Stirred
RoomAir Model,ZONE WAREHOUSE FINE A END_B - STORY GROUND,Mixing/Well-Stirred
RoomAir Model,ZONE WAREHOUSE FINE B  - STORY GROUND,Mixing/Well-Stirred
RoomAir Model,ZONE WAREHOUSE FINE B END_B - STORY GROUND,Mixing/Well-Stirred
RoomAir Model,ZONE WAREHOUSE FINE C  - STORY GROUND,Mixing/Well-Stirred
RoomAir Model,ZONE WAREHOUSE FINE C END_B - STORY GROUND,Mixing/Well-Stirred
RoomAir Model,ZONE WAREHOUSE OFFICE A  - STORY GROUND,Mixing/Well-Stirred
RoomAir Model,ZONE WAREHOUSE OFFICE B  - STORY GROUND,Mixing/Well-Stirred
RoomAir Model,ZONE WAREHOUSE OFFICE C  - STORY GROUND,Mixing/Well-Stirred
! <AirflowNetwork Model:Control>, No Multizone or Distribution/Multizone with Distribution/Multizone without Distribution/Multizone with Distribution only during Fan Operation
AirflowNetwork Model:Control,NoMultizoneOrDistribution
! <Zone Volume Capacitance Multiplier>, Sensible Heat Capacity Multiplier, Moisture Capacity Multiplier, Carbon Dioxide Capacity Multiplier, Generic Contaminant Capacity Multiplier
Zone Volume Capacitance Multiplier,   1.000 ,   1.000,   1.000,   1.000
! <Load Timesteps in Zone Design Calculation Averaging Window>, Value
 Load Timesteps in Zone Design Calculation Averaging Window,    6
! <Heating Sizing Factor Information>, Sizing Factor ID, Value
 Heating Sizing Factor Information, Global,   1.2500    
 Heating Sizing Factor Information, Zone ZONE WAREHOUSE BULK A  - STORY GROUND,   1.2500    
 Heating Sizing Factor Information, Zone ZONE WAREHOUSE BULK A END_A - STORY GROUND,   1.2500    
 Heating Sizing Factor Information, Zone ZONE WAREHOUSE BULK B  - STORY GROUND,   1.2500    
 Heating Sizing Factor Information, Zone ZONE WAREHOUSE BULK B END_A - STORY GROUND,   1.2500    
 Heating Sizing Factor Information, Zone ZONE WAREHOUSE BULK C  - STORY GROUND,   1.2500    
 Heating Sizing Factor Information, Zone ZONE WAREHOUSE BULK C END_A - STORY GROUND,   1.2500    
 Heating Sizing Factor Information, Zone ZONE WAREHOUSE FINE A  - STORY GROUND,   1.2500    
 Heating Sizing Factor Information, Zone ZONE WAREHOUSE FINE A END_B - STORY GROUND,   1.2500    
 Heating Sizing Factor Information, Zone ZONE WAREHOUSE FINE B  - STORY GROUND,   1.2500    
 Heating Sizing Factor Information, Zone ZONE WAREHOUSE FINE B END_B - STORY GROUND,   1.2500    
 Heating Sizing Factor Information, Zone ZONE WAREHOUSE FINE C  - STORY GROUND,   1.2500    
 Heating Sizing Factor Information, Zone ZONE WAREHOUSE FINE C END_B - STORY GROUND,   1.2500    
 Heating Sizing Factor Information, Zone ZONE WAREHOUSE OFFICE A  - STORY GROUND,   1.2500    
 Heating Sizing Factor Information, Zone ZONE WAREHOUSE OFFICE B  - STORY GROUND,   1.2500    
 Heating Sizing Factor Information, Zone ZONE WAREHOUSE OFFICE C  - STORY GROUND,   1.2500    
! <Cooling Sizing Factor Information>, Sizing Factor ID, Value
 Cooling Sizing Factor Information, Global,   1.1500    
 Cooling Sizing Factor Information, Zone ZONE WAREHOUSE BULK A  - STORY GROUND,   1.1500    
 Cooling Sizing Factor Information, Zone ZONE WAREHOUSE BULK A END_A - STORY GROUND,   1.1500    
 Cooling Sizing Factor Information, Zone ZONE WAREHOUSE BULK B  - STORY GROUND,   1.1500    
 Cooling Sizing Factor Information, Zone ZONE WAREHOUSE BULK B END_A - STORY GROUND,   1.1500    
 Cooling Sizing Factor Information, Zone ZONE WAREHOUSE BULK C  - STORY GROUND,   1.1500    
 Cooling Sizing Factor Information, Zone ZONE WAREHOUSE BULK C END_A - STORY GROUND,   1.1500    
 Cooling Sizing Factor Information, Zone ZONE WAREHOUSE FINE A  - STORY GROUND,   1.1500    
 Cooling Sizing Factor Information, Zone ZONE WAREHOUSE FINE A END_B - STORY GROUND,   1.1500    
 Cooling Sizing Factor Information, Zone ZONE WAREHOUSE FINE B  - STORY GROUND,   1.1500    
 Cooling Sizing Factor Information, Zone ZONE WAREHOUSE FINE B END_B - STORY GROUND,   1.1500    
 Cooling Sizing Factor Information, Zone ZONE WAREHOUSE FINE C  - STORY GROUND,   1.1500    
 Cooling Sizing Factor Information, Zone ZONE WAREHOUSE FINE C END_B - STORY GROUND,   1.1500    
 Cooling Sizing Factor Information, Zone ZONE WAREHOUSE OFFICE A  - STORY GROUND,   1.1500    
 Cooling Sizing Factor Information, Zone ZONE WAREHOUSE OFFICE B  - STORY GROUND,   1.1500    
 Cooling Sizing Factor Information, Zone ZONE WAREHOUSE OFFICE C  - STORY GROUND,   1.1500    
! <Zone Sizing Information>, Zone Name, Load Type, Calc Des Load {W}, User Des Load {W}, Calc Des Air Flow Rate {m3/s}, User Des Air Flow Rate {m3/s}, Design Day Name, Date/Time of Peak, Temperature at Peak {C}, Humidity Ratio at Peak {kgWater/kgDryAir}, Floor Area {m2}, # Occupants, Calc Outdoor Air Flow Rate {m3/s}, Calc DOAS Heat Addition Rate {W}
 Zone Sizing Information, ZONE WAREHOUSE BULK A  - STORY GROUND, Cooling, 0.00000, 0.00000, 0.00000, 2.28858E-002, KODIAK JULY .4% CONDNS DB=>MCWB, 7/21 15:40:00, 23.98000, 8.28459E-003, 75.08451, 0.00000, 2.28858E-002, 0.00000
 Zone Sizing Information, ZONE WAREHOUSE BULK A  - STORY GROUND, Heating, 4342.58416, 5428.23020, 0.11835, 0.14794, KODIAK ANN HTG 99.6% CONDNS DB, 1/21 06:20:00, -12.80000, 1.24844E-003, 75.08451, 0.00000, 2.28858E-002, 0.00000
 Zone Sizing Information, ZONE WAREHOUSE BULK A END_A - STORY GROUND, Cooling, 0.00000, 0.00000, 0.00000, 6.37129E-003, KODIAK JULY .4% CONDNS DB=>MCWB, 7/21 17:00:00, 23.43000, 8.28374E-003, 20.90318, 0.00000, 6.37129E-003, 0.00000
 Zone Sizing Information, ZONE WAREHOUSE BULK A END_A - STORY GROUND, Heating, 2409.58368, 3011.97960, 6.56685E-002, 8.20856E-002, KODIAK ANN HTG 99.6% CONDNS DB, 1/21 06:50:00, -12.80000, 1.24844E-003, 20.90318, 0.00000, 6.37129E-003, 0.00000
 Zone Sizing Information, ZONE WAREHOUSE BULK B  - STORY GROUND, Cooling, 0.00000, 0.00000, 0.00000, 5.99333E-002, KODIAK JULY .4% CONDNS DB=>MCWB, 7/21 16:40:00, 23.57667, 8.28397E-003, 196.63148, 0.00000, 5.99333E-002, 0.00000
 Zone Sizing Information, ZONE WAREHOUSE BULK B  - STORY GROUND, Heating, 1609.27818, 2011.59773, 4.38577E-002, 5.99333E-002, KODIAK ANN HTG 99.6% CONDNS DB, 1/21 06:20:00, -12.80000, 1.24844E-003, 196.63148, 0.00000, 5.99333E-002, 0.00000
 Zone Sizing Information, ZONE WAREHOUSE BULK B END_A - STORY GROUND, Cooling, 0.00000, 0.00000, 0.00000, 1.66851E-002, KODIAK JULY .4% CONDNS DB=>MCWB, 7/21 17:10:00, 23.33833, 8.28360E-003, 54.74130, 0.00000, 1.66851E-002, 0.00000
 Zone Sizing Information, ZONE WAREHOUSE BULK B END_A - STORY GROUND, Heating, 3420.27613, 4275.34517, 9.32129E-002, 0.11652, KODIAK ANN HTG 99.6% CONDNS DB, 1/21 06:50:00, -12.80000, 1.24844E-003, 54.74130, 0.00000, 1.66851E-002, 0.00000
 Zone Sizing Information, ZONE WAREHOUSE BULK C  - STORY GROUND, Cooling, 0.00000, 0.00000, 0.00000, 2.28858E-002, KODIAK JULY .4% CONDNS DB=>MCWB, 7/21 15:50:00, 23.92500, 8.28450E-003, 75.08451, 0.00000, 2.28858E-002, 0.00000
 Zone Sizing Information, ZONE WAREHOUSE BULK C  - STORY GROUND, Heating, 4338.40181, 5423.00227, 0.11823, 0.14779, KODIAK ANN HTG 99.6% CONDNS DB, 1/21 06:20:00, -12.80000, 1.24844E-003, 75.08451, 0.00000, 2.28858E-002, 0.00000
 Zone Sizing Information, ZONE WAREHOUSE BULK C END_A - STORY GROUND, Cooling, 0.00000, 0.00000, 0.00000, 6.37129E-003, KODIAK JULY .4% CONDNS DB=>MCWB, 7/21 17:10:00, 23.33833, 8.28360E-003, 20.90318, 0.00000, 6.37129E-003, 0.00000
 Zone Sizing Information, ZONE WAREHOUSE BULK C END_A - STORY GROUND, Heating, 2407.99406, 3009.99257, 6.56251E-002, 8.20314E-002, KODIAK ANN HTG 99.6% CONDNS DB, 1/21 06:50:00, -12.80000, 1.24844E-003, 20.90318, 0.00000, 6.37129E-003, 0.00000
 Zone Sizing Information, ZONE WAREHOUSE FINE A  - STORY GROUND, Cooling, 490.77434, 564.39049, 2.87946E-002, 3.31137E-002, KODIAK JULY .4% CONDNS DB=>MCWB, 7/21 15:00:00, 24.20000, 8.28493E-003, 20.83437, 0.00000, 6.35032E-003, 0.00000
 Zone Sizing Information, ZONE WAREHOUSE FINE A  - STORY GROUND, Heating, 1722.23021, 2152.78777, 4.08750E-002, 5.10938E-002, KODIAK ANN HTG 99.6% CONDNS DB, 1/21 06:10:00, -12.80000, 1.24844E-003, 20.83437, 0.00000, 6.35032E-003, 0.00000
 Zone Sizing Information, ZONE WAREHOUSE FINE A END_B - STORY GROUND, Cooling, 505.59377, 581.43283, 2.96640E-002, 3.41136E-002, KODIAK JULY .4% CONDNS DB=>MCWB, 7/21 15:00:00, 24.20000, 8.28493E-003, 20.90318, 0.00000, 6.37129E-003, 0.00000
 Zone Sizing Information, ZONE WAREHOUSE FINE A END_B - STORY GROUND, Heating, 3040.79128, 3800.98910, 7.21558E-002, 9.01948E-002, KODIAK ANN HTG 99.6% CONDNS DB, 1/21 06:10:00, -12.80000, 1.24844E-003, 20.90318, 0.00000, 6.37129E-003, 0.00000
 Zone Sizing Information, ZONE WAREHOUSE FINE B  - STORY GROUND, Cooling, 1129.19023, 1298.56876, 6.62520E-002, 7.61898E-002, KODIAK JULY .4% CONDNS DB=>MCWB, 7/21 14:40:00, 24.20000, 8.28493E-003, 54.56110, 0.00000, 1.66302E-002, 0.00000
 Zone Sizing Information, ZONE WAREHOUSE FINE B  - STORY GROUND, Heating, 1039.76336, 1299.70420, 2.46835E-002, 3.08544E-002, KODIAK ANN HTG 99.6% CONDNS DB, 1/21 06:10:00, -12.80000, 1.24844E-003, 54.56110, 0.00000, 1.66302E-002, 0.00000
 Zone Sizing Information, ZONE WAREHOUSE FINE B END_B - STORY GROUND, Cooling, 1155.44876, 1328.76608, 6.77921E-002, 7.79609E-002, KODIAK JULY .4% CONDNS DB=>MCWB, 7/21 12:10:00, 23.55833, 8.28394E-003, 54.74130, 0.00000, 1.66851E-002, 0.00000
 Zone Sizing Information, ZONE WAREHOUSE FINE B END_B - STORY GROUND, Heating, 4347.85016, 5434.81270, 0.10319, 0.12899, KODIAK ANN HTG 99.6% CONDNS DB, 1/21 06:10:00, -12.80000, 1.24844E-003, 54.74130, 0.00000, 1.66851E-002, 0.00000
 Zone Sizing Information, ZONE WAREHOUSE FINE C  - STORY GROUND, Cooling, 255.42116, 293.73433, 1.49860E-002, 1.72339E-002, KODIAK JULY .4% CONDNS DB=>MCWB, 7/21 14:50:00, 24.20000, 8.28493E-003, 20.83437, 0.00000, 6.35032E-003, 0.00000
 Zone Sizing Information, ZONE WAREHOUSE FINE C  - STORY GROUND, Heating, 1722.09525, 2152.61906, 4.08718E-002, 5.10898E-002, KODIAK ANN HTG 99.6% CONDNS DB, 1/21 06:10:00, -12.80000, 1.24844E-003, 20.83437, 0.00000, 6.35032E-003, 0.00000
 Zone Sizing Information, ZONE WAREHOUSE FINE C END_B - STORY GROUND, Cooling, 269.01798, 309.37068, 1.57838E-002, 1.81513E-002, KODIAK JULY .4% CONDNS DB=>MCWB, 7/21 14:50:00, 24.20000, 8.28493E-003, 20.90318, 0.00000, 6.37129E-003, 0.00000
 Zone Sizing Information, ZONE WAREHOUSE FINE C END_B - STORY GROUND, Heating, 3040.46188, 3800.57735, 7.21480E-002, 9.01850E-002, KODIAK ANN HTG 99.6% CONDNS DB, 1/21 06:10:00, -12.80000, 1.24844E-003, 20.90318, 0.00000, 6.37129E-003, 0.00000
 Zone Sizing Information, ZONE WAREHOUSE OFFICE A  - STORY GROUND, Cooling, 833.08321, 958.04569, 6.11844E-002, 7.03620E-002, KODIAK JULY .4% CONDNS DB=>MCWB, 7/21 15:40:00, 23.98000, 8.28459E-003, 7.09625, 0.14971, 2.51622E-003, 0.00000
 Zone Sizing Information, ZONE WAREHOUSE OFFICE A  - STORY GROUND, Heating, 1766.92137, 2208.65171, 4.96715E-002, 6.20893E-002, KODIAK ANN HTG 99.6% CONDNS DB, 1/21 09:00:00, -12.80000, 1.24844E-003, 7.09625, 0.14971, 2.51622E-003, 0.00000
 Zone Sizing Information, ZONE WAREHOUSE OFFICE B  - STORY GROUND, Cooling, 2091.90277, 2405.68818, 0.15364, 0.17668, KODIAK JULY .4% CONDNS DB=>MCWB, 7/21 15:50:00, 23.92500, 8.28450E-003, 18.58368, 0.39206, 6.58948E-003, 0.00000
 Zone Sizing Information, ZONE WAREHOUSE OFFICE B  - STORY GROUND, Heating, 2908.46799, 3635.58498, 8.17580E-002, 0.10220, KODIAK ANN HTG 99.6% CONDNS DB, 1/21 09:00:00, -12.80000, 1.24844E-003, 18.58368, 0.39206, 6.58948E-003, 0.00000
 Zone Sizing Information, ZONE WAREHOUSE OFFICE C  - STORY GROUND, Cooling, 636.16627, 731.59121, 4.67222E-002, 5.37305E-002, KODIAK JULY .4% CONDNS DB=>MCWB, 7/21 15:40:00, 23.98000, 8.28459E-003, 7.09625, 0.14971, 2.51622E-003, 0.00000
 Zone Sizing Information, ZONE WAREHOUSE OFFICE C  - STORY GROUND, Heating, 1766.89826, 2208.62283, 4.96708E-002, 6.20885E-002, KODIAK ANN HTG 99.6% CONDNS DB, 1/21 09:00:00, -12.80000, 1.24844E-003, 7.09625, 0.14971, 2.51622E-003, 0.00000
! <System Sizing Information>, System Name, Load Type, Peak Load Kind, User Design Capacity, Calc Des Air Flow Rate [m3/s], User Des Air Flow Rate [m3/s], Design Day Name, Date/Time of Peak
 System Sizing Information, ZONE WAREHOUSE FINE A  - STORY GROUND PSZ-AC, Cooling, Sensible, 536.53, 3.31137E-002, 3.31137E-002, KODIAK JULY .4% CONDNS DB=>MCWB, 7/21 05:00:00
 System Sizing Information, ZONE WAREHOUSE FINE A  - STORY GROUND PSZ-AC, Heating, Sensible, 2338.43, 5.10938E-002, 5.10938E-002, KODIAK ANN HTG 99.6% CONDNS DB, 1/21 06:10:00
 System Sizing Information, ZONE WAREHOUSE FINE A END_B - STORY GROUND PSZ-AC, Cooling, Sensible, 553.24, 3.41136E-002, 3.41136E-002, KODIAK JULY .4% CONDNS DB=>MCWB, 7/21 05:00:00
 System Sizing Information, ZONE WAREHOUSE FINE A END_B - STORY GROUND PSZ-AC, Heating, Sensible, 3963.29, 9.01948E-002, 9.01948E-002, KODIAK ANN HTG 99.6% CONDNS DB, 1/21 06:10:00
 System Sizing Information, ZONE WAREHOUSE FINE B  - STORY GROUND PSZ-AC, Cooling, Sensible, 1228.38, 7.61898E-002, 7.61898E-002, KODIAK JULY .4% CONDNS DB=>MCWB, 7/21 05:00:00
 System Sizing Information, ZONE WAREHOUSE FINE B  - STORY GROUND PSZ-AC, Heating, Sensible, 1849.23, 3.08544E-002, 3.08544E-002, KODIAK ANN HTG 99.6% CONDNS DB, 1/21 06:10:00
 System Sizing Information, ZONE WAREHOUSE FINE B END_B - STORY GROUND PSZ-AC, Cooling, Sensible, 1245.59, 7.79609E-002, 7.79609E-002, KODIAK JULY .4% CONDNS DB=>MCWB, 7/21 05:00:00
 System Sizing Information, ZONE WAREHOUSE FINE B END_B - STORY GROUND PSZ-AC, Heating, Sensible, 5925.80, 0.12899, 0.12899, KODIAK ANN HTG 99.6% CONDNS DB, 1/21 06:10:00
 System Sizing Information, ZONE WAREHOUSE FINE C  - STORY GROUND PSZ-AC, Cooling, Sensible, 270.06, 1.72339E-002, 1.72339E-002, KODIAK JULY .4% CONDNS DB=>MCWB, 7/21 05:00:00
 System Sizing Information, ZONE WAREHOUSE FINE C  - STORY GROUND PSZ-AC, Heating, Sensible, 2338.27, 5.10898E-002, 5.10898E-002, KODIAK ANN HTG 99.6% CONDNS DB, 1/21 06:10:00
 System Sizing Information, ZONE WAREHOUSE FINE C END_B - STORY GROUND PSZ-AC, Cooling, Sensible, 285.39, 1.81513E-002, 1.81513E-002, KODIAK JULY .4% CONDNS DB=>MCWB, 7/21 05:00:00
 System Sizing Information, ZONE WAREHOUSE FINE C END_B - STORY GROUND PSZ-AC, Heating, Sensible, 3962.89, 9.01850E-002, 9.01850E-002, KODIAK ANN HTG 99.6% CONDNS DB, 1/21 06:10:00
 System Sizing Information, ZONE WAREHOUSE OFFICE A  - STORY GROUND PSZ-AC, Cooling, Sensible, 943.47, 7.03620E-002, 7.03620E-002, KODIAK JULY .4% CONDNS DB=>MCWB, 7/21 05:00:00
 System Sizing Information, ZONE WAREHOUSE OFFICE A  - STORY GROUND PSZ-AC, Heating, Sensible, 2277.60, 6.20893E-002, 6.20893E-002, KODIAK ANN HTG 99.6% CONDNS DB, 1/21 09:00:00
 System Sizing Information, ZONE WAREHOUSE OFFICE B  - STORY GROUND PSZ-AC, Cooling, Sensible, 2369.01, 0.17668, 0.17668, KODIAK JULY .4% CONDNS DB=>MCWB, 7/21 05:00:00
 System Sizing Information, ZONE WAREHOUSE OFFICE B  - STORY GROUND PSZ-AC, Heating, Sensible, 3847.45, 0.10220, 0.10220, KODIAK ANN HTG 99.6% CONDNS DB, 1/21 09:00:00
 System Sizing Information, ZONE WAREHOUSE OFFICE C  - STORY GROUND PSZ-AC, Cooling, Sensible, 720.52, 5.37305E-002, 5.37305E-002, KODIAK JULY .4% CONDNS DB=>MCWB, 7/21 05:00:00
 System Sizing Information, ZONE WAREHOUSE OFFICE C  - STORY GROUND PSZ-AC, Heating, Sensible, 2277.57, 6.20885E-002, 6.20885E-002, KODIAK ANN HTG 99.6% CONDNS DB, 1/21 09:00:00
! <Component Sizing Information>, Component Type, Component Name, Input Field Description, Value
 Component Sizing Information, ZONEHVAC:BASEBOARD:CONVECTIVE:ELECTRIC, ZONE WAREHOUSE BULK A  - STORY GROUND ELECTRIC BASEBOARD, Design Size Heating Design Capacity [W], 5428.23020
 Component Sizing Information, ZONEHVAC:BASEBOARD:CONVECTIVE:ELECTRIC, ZONE WAREHOUSE BULK A END_A - STORY GROUND ELECTRIC BASEBOARD, Design Size Heating Design Capacity [W], 3011.97960
 Component Sizing Information, ZONEHVAC:BASEBOARD:CONVECTIVE:ELECTRIC, ZONE WAREHOUSE BULK B  - STORY GROUND ELECTRIC BASEBOARD, Design Size Heating Design Capacity [W], 2011.59773
 Component Sizing Information, ZONEHVAC:BASEBOARD:CONVECTIVE:ELECTRIC, ZONE WAREHOUSE BULK B END_A - STORY GROUND ELECTRIC BASEBOARD, Design Size Heating Design Capacity [W], 4275.34517
 Component Sizing Information, ZONEHVAC:BASEBOARD:CONVECTIVE:ELECTRIC, ZONE WAREHOUSE BULK C  - STORY GROUND ELECTRIC BASEBOARD, Design Size Heating Design Capacity [W], 5423.00227
 Component Sizing Information, ZONEHVAC:BASEBOARD:CONVECTIVE:ELECTRIC, ZONE WAREHOUSE BULK C END_A - STORY GROUND ELECTRIC BASEBOARD, Design Size Heating Design Capacity [W], 3009.99257
 Component Sizing Information, AirTerminal:SingleDuct:ConstantVolume:NoReheat, ZONE WAREHOUSE FINE A  - STORY GROUND PSZ-AC DIFFUSER, Design Size Maximum Air Flow Rate [m3/s], 5.10938E-002
 Component Sizing Information, AirTerminal:SingleDuct:ConstantVolume:NoReheat, ZONE WAREHOUSE FINE A END_B - STORY GROUND PSZ-AC DIFFUSER, Design Size Maximum Air Flow Rate [m3/s], 9.01948E-002
 Component Sizing Information, AirTerminal:SingleDuct:ConstantVolume:NoReheat, ZONE WAREHOUSE FINE B  - STORY GROUND PSZ-AC DIFFUSER, Design Size Maximum Air Flow Rate [m3/s], 7.61898E-002
 Component Sizing Information, AirTerminal:SingleDuct:ConstantVolume:NoReheat, ZONE WAREHOUSE FINE B END_B - STORY GROUND PSZ-AC DIFFUSER, Design Size Maximum Air Flow Rate [m3/s], 0.12899
 Component Sizing Information, AirTerminal:SingleDuct:ConstantVolume:NoReheat, ZONE WAREHOUSE FINE C  - STORY GROUND PSZ-AC DIFFUSER, Design Size Maximum Air Flow Rate [m3/s], 5.10898E-002
 Component Sizing Information, AirTerminal:SingleDuct:ConstantVolume:NoReheat, ZONE WAREHOUSE FINE C END_B - STORY GROUND PSZ-AC DIFFUSER, Design Size Maximum Air Flow Rate [m3/s], 9.01850E-002
 Component Sizing Information, AirTerminal:SingleDuct:ConstantVolume:NoReheat, ZONE WAREHOUSE OFFICE A  - STORY GROUND PSZ-AC DIFFUSER, Design Size Maximum Air Flow Rate [m3/s], 7.03620E-002
 Component Sizing Information, AirTerminal:SingleDuct:ConstantVolume:NoReheat, ZONE WAREHOUSE OFFICE B  - STORY GROUND PSZ-AC DIFFUSER, Design Size Maximum Air Flow Rate [m3/s], 0.17668
 Component Sizing Information, AirTerminal:SingleDuct:ConstantVolume:NoReheat, ZONE WAREHOUSE OFFICE C  - STORY GROUND PSZ-AC DIFFUSER, Design Size Maximum Air Flow Rate [m3/s], 6.20885E-002
 Component Sizing Information, AirLoopHVAC, ZONE WAREHOUSE FINE A  - STORY GROUND PSZ-AC, Sum of Air Terminal Maximum Heating Flow Rates [m3/s], 5.10938E-002
 Component Sizing Information, AirLoopHVAC, ZONE WAREHOUSE FINE A  - STORY GROUND PSZ-AC, Sum of Air Terminal Minimum Heating Flow Rates [m3/s], 5.10938E-002
 Component Sizing Information, AirLoopHVAC, ZONE WAREHOUSE FINE A  - STORY GROUND PSZ-AC, Sum of Air Terminal Maximum Flow Rates [m3/s], 5.10938E-002
 Component Sizing Information, AirLoopHVAC, ZONE WAREHOUSE FINE A  - STORY GROUND PSZ-AC, Adjusted Heating Design Air Flow Rate [m3/s], 5.10938E-002
 Component Sizing Information, AirLoopHVAC, ZONE WAREHOUSE FINE A  - STORY GROUND PSZ-AC, Adjusted Cooling Design Air Flow Rate [m3/s], 5.10938E-002
 Component Sizing Information, AirLoopHVAC, ZONE WAREHOUSE FINE A  - STORY GROUND PSZ-AC, Adjusted Main Design Air Flow Rate [m3/s], 5.10938E-002
 Component Sizing Information, AirLoopHVAC, ZONE WAREHOUSE FINE A  - STORY GROUND PSZ-AC, User Heating Air Flow Ratio [], 1.00000
 Component Sizing Information, AirLoopHVAC, ZONE WAREHOUSE FINE A  - STORY GROUND PSZ-AC, Calculated Heating Air Flow Ratio [], 1.00000
 Component Sizing Information, AirLoopHVAC, ZONE WAREHOUSE FINE A END_B - STORY GROUND PSZ-AC, Sum of Air Terminal Maximum Heating Flow Rates [m3/s], 9.01948E-002
 Component Sizing Information, AirLoopHVAC, ZONE WAREHOUSE FINE A END_B - STORY GROUND PSZ-AC, Sum of Air Terminal Minimum Heating Flow Rates [m3/s], 9.01948E-002
 Component Sizing Information, AirLoopHVAC, ZONE WAREHOUSE FINE A END_B - STORY GROUND PSZ-AC, Sum of Air Terminal Maximum Flow Rates [m3/s], 9.01948E-002
 Component Sizing Information, AirLoopHVAC, ZONE WAREHOUSE FINE A END_B - STORY GROUND PSZ-AC, Adjusted Heating Design Air Flow Rate [m3/s], 9.01948E-002
 Component Sizing Information, AirLoopHVAC, ZONE WAREHOUSE FINE A END_B - STORY GROUND PSZ-AC, Adjusted Cooling Design Air Flow Rate [m3/s], 9.01948E-002
 Component Sizing Information, AirLoopHVAC, ZONE WAREHOUSE FINE A END_B - STORY GROUND PSZ-AC, Adjusted Main Design Air Flow Rate [m3/s], 9.01948E-002
 Component Sizing Information, AirLoopHVAC, ZONE WAREHOUSE FINE A END_B - STORY GROUND PSZ-AC, User Heating Air Flow Ratio [], 1.00000
 Component Sizing Information, AirLoopHVAC, ZONE WAREHOUSE FINE A END_B - STORY GROUND PSZ-AC, Calculated Heating Air Flow Ratio [], 1.00000
 Component Sizing Information, AirLoopHVAC, ZONE WAREHOUSE FINE B  - STORY GROUND PSZ-AC, Sum of Air Terminal Maximum Heating Flow Rates [m3/s], 7.61898E-002
 Component Sizing Information, AirLoopHVAC, ZONE WAREHOUSE FINE B  - STORY GROUND PSZ-AC, Sum of Air Terminal Minimum Heating Flow Rates [m3/s], 7.61898E-002
 Component Sizing Information, AirLoopHVAC, ZONE WAREHOUSE FINE B  - STORY GROUND PSZ-AC, Sum of Air Terminal Maximum Flow Rates [m3/s], 7.61898E-002
 Component Sizing Information, AirLoopHVAC, ZONE WAREHOUSE FINE B  - STORY GROUND PSZ-AC, Adjusted Heating Design Air Flow Rate [m3/s], 7.61898E-002
 Component Sizing Information, AirLoopHVAC, ZONE WAREHOUSE FINE B  - STORY GROUND PSZ-AC, Adjusted Cooling Design Air Flow Rate [m3/s], 7.61898E-002
 Component Sizing Information, AirLoopHVAC, ZONE WAREHOUSE FINE B  - STORY GROUND PSZ-AC, Adjusted Main Design Air Flow Rate [m3/s], 7.61898E-002
 Component Sizing Information, AirLoopHVAC, ZONE WAREHOUSE FINE B  - STORY GROUND PSZ-AC, User Heating Air Flow Ratio [], 1.00000
 Component Sizing Information, AirLoopHVAC, ZONE WAREHOUSE FINE B  - STORY GROUND PSZ-AC, Calculated Heating Air Flow Ratio [], 1.00000
 Component Sizing Information, AirLoopHVAC, ZONE WAREHOUSE FINE B END_B - STORY GROUND PSZ-AC, Sum of Air Terminal Maximum Heating Flow Rates [m3/s], 0.12899
 Component Sizing Information, AirLoopHVAC, ZONE WAREHOUSE FINE B END_B - STORY GROUND PSZ-AC, Sum of Air Terminal Minimum Heating Flow Rates [m3/s], 0.12899
 Component Sizing Information, AirLoopHVAC, ZONE WAREHOUSE FINE B END_B - STORY GROUND PSZ-AC, Sum of Air Terminal Maximum Flow Rates [m3/s], 0.12899
 Component Sizing Information, AirLoopHVAC, ZONE WAREHOUSE FINE B END_B - STORY GROUND PSZ-AC, Adjusted Heating Design Air Flow Rate [m3/s], 0.12899
 Component Sizing Information, AirLoopHVAC, ZONE WAREHOUSE FINE B END_B - STORY GROUND PSZ-AC, Adjusted Cooling Design Air Flow Rate [m3/s], 0.12899
 Component Sizing Information, AirLoopHVAC, ZONE WAREHOUSE FINE B END_B - STORY GROUND PSZ-AC, Adjusted Main Design Air Flow Rate [m3/s], 0.12899
 Component Sizing Information, AirLoopHVAC, ZONE WAREHOUSE FINE B END_B - STORY GROUND PSZ-AC, User Heating Air Flow Ratio [], 1.00000
 Component Sizing Information, AirLoopHVAC, ZONE WAREHOUSE FINE B END_B - STORY GROUND PSZ-AC, Calculated Heating Air Flow Ratio [], 1.00000
 Component Sizing Information, AirLoopHVAC, ZONE WAREHOUSE FINE C  - STORY GROUND PSZ-AC, Sum of Air Terminal Maximum Heating Flow Rates [m3/s], 5.10898E-002
 Component Sizing Information, AirLoopHVAC, ZONE WAREHOUSE FINE C  - STORY GROUND PSZ-AC, Sum of Air Terminal Minimum Heating Flow Rates [m3/s], 5.10898E-002
 Component Sizing Information, AirLoopHVAC, ZONE WAREHOUSE FINE C  - STORY GROUND PSZ-AC, Sum of Air Terminal Maximum Flow Rates [m3/s], 5.10898E-002
 Component Sizing Information, AirLoopHVAC, ZONE WAREHOUSE FINE C  - STORY GROUND PSZ-AC, Adjusted Heating Design Air Flow Rate [m3/s], 5.10898E-002
 Component Sizing Information, AirLoopHVAC, ZONE WAREHOUSE FINE C  - STORY GROUND PSZ-AC, Adjusted Cooling Design Air Flow Rate [m3/s], 5.10898E-002
 Component Sizing Information, AirLoopHVAC, ZONE WAREHOUSE FINE C  - STORY GROUND PSZ-AC, Adjusted Main Design Air Flow Rate [m3/s], 5.10898E-002
 Component Sizing Information, AirLoopHVAC, ZONE WAREHOUSE FINE C  - STORY GROUND PSZ-AC, User Heating Air Flow Ratio [], 1.00000
 Component Sizing Information, AirLoopHVAC, ZONE WAREHOUSE FINE C  - STORY GROUND PSZ-AC, Calculated Heating Air Flow Ratio [], 1.00000
 Component Sizing Information, AirLoopHVAC, ZONE WAREHOUSE FINE C END_B - STORY GROUND PSZ-AC, Sum of Air Terminal Maximum Heating Flow Rates [m3/s], 9.01850E-002
 Component Sizing Information, AirLoopHVAC, ZONE WAREHOUSE FINE C END_B - STORY GROUND PSZ-AC, Sum of Air Terminal Minimum Heating Flow Rates [m3/s], 9.01850E-002
 Component Sizing Information, AirLoopHVAC, ZONE WAREHOUSE FINE C END_B - STORY GROUND PSZ-AC, Sum of Air Terminal Maximum Flow Rates [m3/s], 9.01850E-002
 Component Sizing Information, AirLoopHVAC, ZONE WAREHOUSE FINE C END_B - STORY GROUND PSZ-AC, Adjusted Heating Design Air Flow Rate [m3/s], 9.01850E-002
 Component Sizing Information, AirLoopHVAC, ZONE WAREHOUSE FINE C END_B - STORY GROUND PSZ-AC, Adjusted Cooling Design Air Flow Rate [m3/s], 9.01850E-002
 Component Sizing Information, AirLoopHVAC, ZONE WAREHOUSE FINE C END_B - STORY GROUND PSZ-AC, Adjusted Main Design Air Flow Rate [m3/s], 9.01850E-002
 Component Sizing Information, AirLoopHVAC, ZONE WAREHOUSE FINE C END_B - STORY GROUND PSZ-AC, User Heating Air Flow Ratio [], 1.00000
 Component Sizing Information, AirLoopHVAC, ZONE WAREHOUSE FINE C END_B - STORY GROUND PSZ-AC, Calculated Heating Air Flow Ratio [], 1.00000
 Component Sizing Information, AirLoopHVAC, ZONE WAREHOUSE OFFICE A  - STORY GROUND PSZ-AC, Sum of Air Terminal Maximum Heating Flow Rates [m3/s], 7.03620E-002
 Component Sizing Information, AirLoopHVAC, ZONE WAREHOUSE OFFICE A  - STORY GROUND PSZ-AC, Sum of Air Terminal Minimum Heating Flow Rates [m3/s], 7.03620E-002
 Component Sizing Information, AirLoopHVAC, ZONE WAREHOUSE OFFICE A  - STORY GROUND PSZ-AC, Sum of Air Terminal Maximum Flow Rates [m3/s], 7.03620E-002
 Component Sizing Information, AirLoopHVAC, ZONE WAREHOUSE OFFICE A  - STORY GROUND PSZ-AC, Adjusted Heating Design Air Flow Rate [m3/s], 7.03620E-002
 Component Sizing Information, AirLoopHVAC, ZONE WAREHOUSE OFFICE A  - STORY GROUND PSZ-AC, Adjusted Cooling Design Air Flow Rate [m3/s], 7.03620E-002
 Component Sizing Information, AirLoopHVAC, ZONE WAREHOUSE OFFICE A  - STORY GROUND PSZ-AC, Adjusted Main Design Air Flow Rate [m3/s], 7.03620E-002
 Component Sizing Information, AirLoopHVAC, ZONE WAREHOUSE OFFICE A  - STORY GROUND PSZ-AC, User Heating Air Flow Ratio [], 1.00000
 Component Sizing Information, AirLoopHVAC, ZONE WAREHOUSE OFFICE A  - STORY GROUND PSZ-AC, Calculated Heating Air Flow Ratio [], 1.00000
 Component Sizing Information, AirLoopHVAC, ZONE WAREHOUSE OFFICE B  - STORY GROUND PSZ-AC, Sum of Air Terminal Maximum Heating Flow Rates [m3/s], 0.17668
 Component Sizing Information, AirLoopHVAC, ZONE WAREHOUSE OFFICE B  - STORY GROUND PSZ-AC, Sum of Air Terminal Minimum Heating Flow Rates [m3/s], 0.17668
 Component Sizing Information, AirLoopHVAC, ZONE WAREHOUSE OFFICE B  - STORY GROUND PSZ-AC, Sum of Air Terminal Maximum Flow Rates [m3/s], 0.17668
 Component Sizing Information, AirLoopHVAC, ZONE WAREHOUSE OFFICE B  - STORY GROUND PSZ-AC, Adjusted Heating Design Air Flow Rate [m3/s], 0.17668
 Component Sizing Information, AirLoopHVAC, ZONE WAREHOUSE OFFICE B  - STORY GROUND PSZ-AC, Adjusted Cooling Design Air Flow Rate [m3/s], 0.17668
 Component Sizing Information, AirLoopHVAC, ZONE WAREHOUSE OFFICE B  - STORY GROUND PSZ-AC, Adjusted Main Design Air Flow Rate [m3/s], 0.17668
 Component Sizing Information, AirLoopHVAC, ZONE WAREHOUSE OFFICE B  - STORY GROUND PSZ-AC, User Heating Air Flow Ratio [], 1.00000
 Component Sizing Information, AirLoopHVAC, ZONE WAREHOUSE OFFICE B  - STORY GROUND PSZ-AC, Calculated Heating Air Flow Ratio [], 1.00000
 Component Sizing Information, AirLoopHVAC, ZONE WAREHOUSE OFFICE C  - STORY GROUND PSZ-AC, Sum of Air Terminal Maximum Heating Flow Rates [m3/s], 6.20885E-002
 Component Sizing Information, AirLoopHVAC, ZONE WAREHOUSE OFFICE C  - STORY GROUND PSZ-AC, Sum of Air Terminal Minimum Heating Flow Rates [m3/s], 6.20885E-002
 Component Sizing Information, AirLoopHVAC, ZONE WAREHOUSE OFFICE C  - STORY GROUND PSZ-AC, Sum of Air Terminal Maximum Flow Rates [m3/s], 6.20885E-002
 Component Sizing Information, AirLoopHVAC, ZONE WAREHOUSE OFFICE C  - STORY GROUND PSZ-AC, Adjusted Heating Design Air Flow Rate [m3/s], 6.20885E-002
 Component Sizing Information, AirLoopHVAC, ZONE WAREHOUSE OFFICE C  - STORY GROUND PSZ-AC, Adjusted Cooling Design Air Flow Rate [m3/s], 6.20885E-002
 Component Sizing Information, AirLoopHVAC, ZONE WAREHOUSE OFFICE C  - STORY GROUND PSZ-AC, Adjusted Main Design Air Flow Rate [m3/s], 6.20885E-002
 Component Sizing Information, AirLoopHVAC, ZONE WAREHOUSE OFFICE C  - STORY GROUND PSZ-AC, User Heating Air Flow Ratio [], 1.00000
 Component Sizing Information, AirLoopHVAC, ZONE WAREHOUSE OFFICE C  - STORY GROUND PSZ-AC, Calculated Heating Air Flow Ratio [], 1.00000
 Component Sizing Information, AirLoopHVAC, ZONE WAREHOUSE FINE A  - STORY GROUND PSZ-AC, Design Supply Air Flow Rate [m3/s], 5.10938E-002
 Component Sizing Information, AirLoopHVAC, ZONE WAREHOUSE FINE A END_B - STORY GROUND PSZ-AC, Design Supply Air Flow Rate [m3/s], 9.01948E-002
 Component Sizing Information, AirLoopHVAC, ZONE WAREHOUSE FINE B  - STORY GROUND PSZ-AC, Design Supply Air Flow Rate [m3/s], 7.61898E-002
 Component Sizing Information, AirLoopHVAC, ZONE WAREHOUSE FINE B END_B - STORY GROUND PSZ-AC, Design Supply Air Flow Rate [m3/s], 0.12899
 Component Sizing Information, AirLoopHVAC, ZONE WAREHOUSE FINE C  - STORY GROUND PSZ-AC, Design Supply Air Flow Rate [m3/s], 5.10898E-002
 Component Sizing Information, AirLoopHVAC, ZONE WAREHOUSE FINE C END_B - STORY GROUND PSZ-AC, Design Supply Air Flow Rate [m3/s], 9.01850E-002
 Component Sizing Information, AirLoopHVAC, ZONE WAREHOUSE OFFICE A  - STORY GROUND PSZ-AC, Design Supply Air Flow Rate [m3/s], 7.03620E-002
 Component Sizing Information, AirLoopHVAC, ZONE WAREHOUSE OFFICE B  - STORY GROUND PSZ-AC, Design Supply Air Flow Rate [m3/s], 0.17668
 Component Sizing Information, AirLoopHVAC, ZONE WAREHOUSE OFFICE C  - STORY GROUND PSZ-AC, Design Supply Air Flow Rate [m3/s], 6.20885E-002
!<Controller:MechanicalVentilation>,Name,Availability Schedule Name,Demand Controlled Ventilation {Yes/No},System Outdoor Air Method,Zone Maximum Outdoor Air Fraction,Number of Zones,Zone Name,DSOA Name,DSZAD Name
 Controller:MechanicalVentilation,CONTROLLER MECHANICAL VENTILATION 1,ALWAYS ON DISCRETE,No,ZoneSum,1.00,1,ZONE WAREHOUSE FINE A  - STORY GROUND,WAREHOUSE FINE VENTILATION,
 Controller:MechanicalVentilation,CONTROLLER MECHANICAL VENTILATION 2,ALWAYS ON DISCRETE,No,ZoneSum,1.00,1,ZONE WAREHOUSE FINE A END_B - STORY GROUND,WAREHOUSE FINE VENTILATION,
 Controller:MechanicalVentilation,CONTROLLER MECHANICAL VENTILATION 3,ALWAYS ON DISCRETE,No,ZoneSum,1.00,1,ZONE WAREHOUSE FINE B  - STORY GROUND,WAREHOUSE FINE VENTILATION,
 Controller:MechanicalVentilation,CONTROLLER MECHANICAL VENTILATION 4,ALWAYS ON DISCRETE,No,ZoneSum,1.00,1,ZONE WAREHOUSE FINE B END_B - STORY GROUND,WAREHOUSE FINE VENTILATION,
 Controller:MechanicalVentilation,CONTROLLER MECHANICAL VENTILATION 5,ALWAYS ON DISCRETE,No,ZoneSum,1.00,1,ZONE WAREHOUSE FINE C  - STORY GROUND,WAREHOUSE FINE VENTILATION,
 Controller:MechanicalVentilation,CONTROLLER MECHANICAL VENTILATION 6,ALWAYS ON DISCRETE,No,ZoneSum,1.00,1,ZONE WAREHOUSE FINE C END_B - STORY GROUND,WAREHOUSE FINE VENTILATION,
 Controller:MechanicalVentilation,CONTROLLER MECHANICAL VENTILATION 7,ALWAYS ON DISCRETE,No,ZoneSum,1.00,1,ZONE WAREHOUSE OFFICE A  - STORY GROUND,WAREHOUSE OFFICE VENTILATION,
 Controller:MechanicalVentilation,CONTROLLER MECHANICAL VENTILATION 8,ALWAYS ON DISCRETE,No,ZoneSum,1.00,1,ZONE WAREHOUSE OFFICE B  - STORY GROUND,WAREHOUSE OFFICE VENTILATION,
 Controller:MechanicalVentilation,CONTROLLER MECHANICAL VENTILATION 9,ALWAYS ON DISCRETE,No,ZoneSum,1.00,1,ZONE WAREHOUSE OFFICE C  - STORY GROUND,WAREHOUSE OFFICE VENTILATION,
 Component Sizing Information, Controller:OutdoorAir, ZONE WAREHOUSE FINE A  - STORY GROUND PSZ-AC OA SYSTEM CONTROLLER, Maximum Outdoor Air Flow Rate [m3/s], 5.10938E-002
 Component Sizing Information, Controller:OutdoorAir, ZONE WAREHOUSE FINE A  - STORY GROUND PSZ-AC OA SYSTEM CONTROLLER, Minimum Outdoor Air Flow Rate [m3/s], 6.35032E-003
 Component Sizing Information, AirLoopHVAC:UnitarySystem, ZONE WAREHOUSE FINE A  - STORY GROUND PSZ-AC UNITARY AC, Design Size Supply Air Flow Rate [m3/s], 5.10938E-002
 Component Sizing Information, AirLoopHVAC:UnitarySystem, ZONE WAREHOUSE FINE A  - STORY GROUND PSZ-AC UNITARY AC, Design Size Heating Supply Air Flow Rate [m3/s], 5.10938E-002
 Component Sizing Information, AirLoopHVAC:UnitarySystem, ZONE WAREHOUSE FINE A  - STORY GROUND PSZ-AC UNITARY AC, Design Size Cooling Supply Air Flow Rate [m3/s], 5.10938E-002
 Component Sizing Information, AirLoopHVAC:UnitarySystem, ZONE WAREHOUSE FINE A  - STORY GROUND PSZ-AC UNITARY AC, User-Specified No Load Supply Air Flow Rate [m3/s], 0.00000
 Component Sizing Information, AirLoopHVAC:UnitarySystem, ZONE WAREHOUSE FINE A  - STORY GROUND PSZ-AC UNITARY AC, Design Size Nominal Cooling Capacity [W], 902.86095
 Component Sizing Information, AirLoopHVAC:UnitarySystem, ZONE WAREHOUSE FINE A  - STORY GROUND PSZ-AC UNITARY AC, Design Size Nominal Heating Capacity [W], 2338.43268
 Component Sizing Information, AirLoopHVAC:UnitarySystem, ZONE WAREHOUSE FINE A  - STORY GROUND PSZ-AC UNITARY AC, Design Size Maximum Supply Air Temperature [C], 50.00000
 Component Sizing Information, AirLoopHVAC:UnitarySystem, ZONE WAREHOUSE FINE A  - STORY GROUND PSZ-AC UNITARY AC, User-Specified Maximum Supply Air Temperature [C], 80.00000
 Component Sizing Information, AirLoopHVAC:UnitarySystem, ZONE WAREHOUSE FINE A  - STORY GROUND PSZ-AC UNITARY AC, User-Specified Supplemental Heating Coil Nominal Capacity [W], 0.00000
 Component Sizing Information, AirLoopHVAC:UnitarySystem, ZONE WAREHOUSE FINE A  - STORY GROUND PSZ-AC UNITARY AC, Fraction of Supply Air Flow That Goes Through the Controlling Zone, 1.00000
 Component Sizing Information, Coil:Cooling:DX:SingleSpeed, ZONE WAREHOUSE FINE A  - STORY GROUND PSZ-AC 1SPD DX AC CLG COIL, Design Size Rated Air Flow Rate [m3/s], 5.10938E-002
 Component Sizing Information, Coil:Cooling:DX:SingleSpeed, ZONE WAREHOUSE FINE A  - STORY GROUND PSZ-AC 1SPD DX AC CLG COIL, Design Size Gross Rated Total Cooling Capacity [W], 902.86095
 Component Sizing Information, Coil:Cooling:DX:SingleSpeed, ZONE WAREHOUSE FINE A  - STORY GROUND PSZ-AC 1SPD DX AC CLG COIL, Design Size Gross Rated Sensible Heat Ratio, 0.80041
! <DX Cooling Coil Standard Rating Information>, Component Type, Component Name, Standard Rating (Net) Cooling Capacity {W}, Standard Rated Net COP {W/W}, EER {Btu/W-h}, SEER User {Btu/W-h}, SEER Standard {Btu/W-h}, IEER {Btu/W-h}
 DX Cooling Coil Standard Rating Information, Coil:Cooling:DX:SingleSpeed, ZONE WAREHOUSE FINE A  - STORY GROUND PSZ-AC 1SPD DX AC CLG COIL, 863.3, 2.54, 8.65, 9.95, 9.10, 9.54
 DX Cooling Coil Standard Rating Information, Coil:Cooling:DX:SingleSpeed, ZONE WAREHOUSE FINE A  - STORY GROUND PSZ-AC 1SPD DX AC CLG COIL, 855.0, 2.45, 8.37, 9.59, 9.03,  
 Component Sizing Information, Coil:Heating:Fuel, ZONE WAREHOUSE FINE A  - STORY GROUND PSZ-AC GAS HTG COIL, Design Size Nominal Capacity [W], 2338.43268
 Component Sizing Information, Fan:OnOff, ZONE WAREHOUSE FINE A  - STORY GROUND PSZ-AC FAN, Design Size Maximum Flow Rate [m3/s], 5.10938E-002
 Component Sizing Information, Coil:Heating:Electric, ZONE WAREHOUSE FINE A  - STORY GROUND PSZ-AC NO HEAT, User-Specified Nominal Capacity [W], 0.00000
 Component Sizing Information, Controller:OutdoorAir, ZONE WAREHOUSE FINE A END_B - STORY GROUND PSZ-AC OA SYSTEM CONTROLLER, Maximum Outdoor Air Flow Rate [m3/s], 9.01948E-002
 Component Sizing Information, Controller:OutdoorAir, ZONE WAREHOUSE FINE A END_B - STORY GROUND PSZ-AC OA SYSTEM CONTROLLER, Minimum Outdoor Air Flow Rate [m3/s], 6.37129E-003
 Component Sizing Information, AirLoopHVAC:UnitarySystem, ZONE WAREHOUSE FINE A END_B - STORY GROUND PSZ-AC UNITARY AC, Design Size Supply Air Flow Rate [m3/s], 9.01948E-002
 Component Sizing Information, AirLoopHVAC:UnitarySystem, ZONE WAREHOUSE FINE A END_B - STORY GROUND PSZ-AC UNITARY AC, Design Size Heating Supply Air Flow Rate [m3/s], 9.01948E-002
 Component Sizing Information, AirLoopHVAC:UnitarySystem, ZONE WAREHOUSE FINE A END_B - STORY GROUND PSZ-AC UNITARY AC, Design Size Cooling Supply Air Flow Rate [m3/s], 9.01948E-002
 Component Sizing Information, AirLoopHVAC:UnitarySystem, ZONE WAREHOUSE FINE A END_B - STORY GROUND PSZ-AC UNITARY AC, User-Specified No Load Supply Air Flow Rate [m3/s], 0.00000
 Component Sizing Information, AirLoopHVAC:UnitarySystem, ZONE WAREHOUSE FINE A END_B - STORY GROUND PSZ-AC UNITARY AC, Design Size Nominal Cooling Capacity [W], 1595.91473
 Component Sizing Information, AirLoopHVAC:UnitarySystem, ZONE WAREHOUSE FINE A END_B - STORY GROUND PSZ-AC UNITARY AC, Design Size Nominal Heating Capacity [W], 3963.29321
 Component Sizing Information, AirLoopHVAC:UnitarySystem, ZONE WAREHOUSE FINE A END_B - STORY GROUND PSZ-AC UNITARY AC, Design Size Maximum Supply Air Temperature [C], 50.00000
 Component Sizing Information, AirLoopHVAC:UnitarySystem, ZONE WAREHOUSE FINE A END_B - STORY GROUND PSZ-AC UNITARY AC, User-Specified Maximum Supply Air Temperature [C], 80.00000
 Component Sizing Information, AirLoopHVAC:UnitarySystem, ZONE WAREHOUSE FINE A END_B - STORY GROUND PSZ-AC UNITARY AC, User-Specified Supplemental Heating Coil Nominal Capacity [W], 0.00000
 Component Sizing Information, AirLoopHVAC:UnitarySystem, ZONE WAREHOUSE FINE A END_B - STORY GROUND PSZ-AC UNITARY AC, Fraction of Supply Air Flow That Goes Through the Controlling Zone, 1.00000
 Component Sizing Information, Coil:Cooling:DX:SingleSpeed, ZONE WAREHOUSE FINE A END_B - STORY GROUND PSZ-AC 1SPD DX AC CLG COIL, Design Size Rated Air Flow Rate [m3/s], 9.01948E-002
 Component Sizing Information, Coil:Cooling:DX:SingleSpeed, ZONE WAREHOUSE FINE A END_B - STORY GROUND PSZ-AC 1SPD DX AC CLG COIL, Design Size Gross Rated Total Cooling Capacity [W], 1595.91473
 Component Sizing Information, Coil:Cooling:DX:SingleSpeed, ZONE WAREHOUSE FINE A END_B - STORY GROUND PSZ-AC 1SPD DX AC CLG COIL, Design Size Gross Rated Sensible Heat Ratio, 0.80096
 DX Cooling Coil Standard Rating Information, Coil:Cooling:DX:SingleSpeed, ZONE WAREHOUSE FINE A END_B - STORY GROUND PSZ-AC 1SPD DX AC CLG COIL, 1526.0, 2.54, 8.65, 9.95, 9.10, 9.54
 DX Cooling Coil Standard Rating Information, Coil:Cooling:DX:SingleSpeed, ZONE WAREHOUSE FINE A END_B - STORY GROUND PSZ-AC 1SPD DX AC CLG COIL, 1511.5, 2.45, 8.37, 9.60, 9.03,  
 Component Sizing Information, Coil:Heating:Fuel, ZONE WAREHOUSE FINE A END_B - STORY GROUND PSZ-AC GAS HTG COIL, Design Size Nominal Capacity [W], 3963.29321
 Component Sizing Information, Fan:OnOff, ZONE WAREHOUSE FINE A END_B - STORY GROUND PSZ-AC FAN, Design Size Maximum Flow Rate [m3/s], 9.01948E-002
 Component Sizing Information, Coil:Heating:Electric, ZONE WAREHOUSE FINE A END_B - STORY GROUND PSZ-AC NO HEAT, User-Specified Nominal Capacity [W], 0.00000
 Component Sizing Information, Controller:OutdoorAir, ZONE WAREHOUSE FINE B  - STORY GROUND PSZ-AC OA SYSTEM CONTROLLER, Maximum Outdoor Air Flow Rate [m3/s], 7.61898E-002
 Component Sizing Information, Controller:OutdoorAir, ZONE WAREHOUSE FINE B  - STORY GROUND PSZ-AC OA SYSTEM CONTROLLER, Minimum Outdoor Air Flow Rate [m3/s], 1.66302E-002
 Component Sizing Information, AirLoopHVAC:UnitarySystem, ZONE WAREHOUSE FINE B  - STORY GROUND PSZ-AC UNITARY AC, Design Size Supply Air Flow Rate [m3/s], 7.61898E-002
 Component Sizing Information, AirLoopHVAC:UnitarySystem, ZONE WAREHOUSE FINE B  - STORY GROUND PSZ-AC UNITARY AC, Design Size Heating Supply Air Flow Rate [m3/s], 7.61898E-002
 Component Sizing Information, AirLoopHVAC:UnitarySystem, ZONE WAREHOUSE FINE B  - STORY GROUND PSZ-AC UNITARY AC, Design Size Cooling Supply Air Flow Rate [m3/s], 7.61898E-002
 Component Sizing Information, AirLoopHVAC:UnitarySystem, ZONE WAREHOUSE FINE B  - STORY GROUND PSZ-AC UNITARY AC, User-Specified No Load Supply Air Flow Rate [m3/s], 0.00000
 Component Sizing Information, AirLoopHVAC:UnitarySystem, ZONE WAREHOUSE FINE B  - STORY GROUND PSZ-AC UNITARY AC, Design Size Nominal Cooling Capacity [W], 1339.05010
 Component Sizing Information, AirLoopHVAC:UnitarySystem, ZONE WAREHOUSE FINE B  - STORY GROUND PSZ-AC UNITARY AC, Design Size Nominal Heating Capacity [W], 3731.10684
 Component Sizing Information, AirLoopHVAC:UnitarySystem, ZONE WAREHOUSE FINE B  - STORY GROUND PSZ-AC UNITARY AC, Design Size Maximum Supply Air Temperature [C], 50.00000
 Component Sizing Information, AirLoopHVAC:UnitarySystem, ZONE WAREHOUSE FINE B  - STORY GROUND PSZ-AC UNITARY AC, User-Specified Maximum Supply Air Temperature [C], 80.00000
 Component Sizing Information, AirLoopHVAC:UnitarySystem, ZONE WAREHOUSE FINE B  - STORY GROUND PSZ-AC UNITARY AC, User-Specified Supplemental Heating Coil Nominal Capacity [W], 0.00000
 Component Sizing Information, AirLoopHVAC:UnitarySystem, ZONE WAREHOUSE FINE B  - STORY GROUND PSZ-AC UNITARY AC, Fraction of Supply Air Flow That Goes Through the Controlling Zone, 1.00000
 Component Sizing Information, Coil:Cooling:DX:SingleSpeed, ZONE WAREHOUSE FINE B  - STORY GROUND PSZ-AC 1SPD DX AC CLG COIL, Design Size Rated Air Flow Rate [m3/s], 7.61898E-002
 Component Sizing Information, Coil:Cooling:DX:SingleSpeed, ZONE WAREHOUSE FINE B  - STORY GROUND PSZ-AC 1SPD DX AC CLG COIL, Design Size Gross Rated Total Cooling Capacity [W], 1339.05010
 Component Sizing Information, Coil:Cooling:DX:SingleSpeed, ZONE WAREHOUSE FINE B  - STORY GROUND PSZ-AC 1SPD DX AC CLG COIL, Design Size Gross Rated Sensible Heat Ratio, 0.80028
 DX Cooling Coil Standard Rating Information, Coil:Cooling:DX:SingleSpeed, ZONE WAREHOUSE FINE B  - STORY GROUND PSZ-AC 1SPD DX AC CLG COIL, 1280.0, 2.53, 8.64, 9.94, 9.09, 9.52
 DX Cooling Coil Standard Rating Information, Coil:Cooling:DX:SingleSpeed, ZONE WAREHOUSE FINE B  - STORY GROUND PSZ-AC 1SPD DX AC CLG COIL, 1267.7, 2.45, 8.36, 9.58, 9.02,  
 Component Sizing Information, Coil:Heating:Fuel, ZONE WAREHOUSE FINE B  - STORY GROUND PSZ-AC GAS HTG COIL, Design Size Nominal Capacity [W], 3731.10684
 Component Sizing Information, Fan:OnOff, ZONE WAREHOUSE FINE B  - STORY GROUND PSZ-AC FAN, Design Size Maximum Flow Rate [m3/s], 7.61898E-002
 Component Sizing Information, Coil:Heating:Electric, ZONE WAREHOUSE FINE B  - STORY GROUND PSZ-AC NO HEAT, User-Specified Nominal Capacity [W], 0.00000
 Component Sizing Information, Controller:OutdoorAir, ZONE WAREHOUSE FINE B END_B - STORY GROUND PSZ-AC OA SYSTEM CONTROLLER, Maximum Outdoor Air Flow Rate [m3/s], 0.12899
 Component Sizing Information, Controller:OutdoorAir, ZONE WAREHOUSE FINE B END_B - STORY GROUND PSZ-AC OA SYSTEM CONTROLLER, Minimum Outdoor Air Flow Rate [m3/s], 1.66851E-002
 Component Sizing Information, AirLoopHVAC:UnitarySystem, ZONE WAREHOUSE FINE B END_B - STORY GROUND PSZ-AC UNITARY AC, Design Size Supply Air Flow Rate [m3/s], 0.12899
 Component Sizing Information, AirLoopHVAC:UnitarySystem, ZONE WAREHOUSE FINE B END_B - STORY GROUND PSZ-AC UNITARY AC, Design Size Heating Supply Air Flow Rate [m3/s], 0.12899
 Component Sizing Information, AirLoopHVAC:UnitarySystem, ZONE WAREHOUSE FINE B END_B - STORY GROUND PSZ-AC UNITARY AC, Design Size Cooling Supply Air Flow Rate [m3/s], 0.12899
 Component Sizing Information, AirLoopHVAC:UnitarySystem, ZONE WAREHOUSE FINE B END_B - STORY GROUND PSZ-AC UNITARY AC, User-Specified No Load Supply Air Flow Rate [m3/s], 0.00000
 Component Sizing Information, AirLoopHVAC:UnitarySystem, ZONE WAREHOUSE FINE B END_B - STORY GROUND PSZ-AC UNITARY AC, Design Size Nominal Cooling Capacity [W], 2248.01647
 Component Sizing Information, AirLoopHVAC:UnitarySystem, ZONE WAREHOUSE FINE B END_B - STORY GROUND PSZ-AC UNITARY AC, Design Size Nominal Heating Capacity [W], 5925.80311
 Component Sizing Information, AirLoopHVAC:UnitarySystem, ZONE WAREHOUSE FINE B END_B - STORY GROUND PSZ-AC UNITARY AC, Design Size Maximum Supply Air Temperature [C], 50.00000
 Component Sizing Information, AirLoopHVAC:UnitarySystem, ZONE WAREHOUSE FINE B END_B - STORY GROUND PSZ-AC UNITARY AC, User-Specified Maximum Supply Air Temperature [C], 80.00000
 Component Sizing Information, AirLoopHVAC:UnitarySystem, ZONE WAREHOUSE FINE B END_B - STORY GROUND PSZ-AC UNITARY AC, User-Specified Supplemental Heating Coil Nominal Capacity [W], 0.00000
 Component Sizing Information, AirLoopHVAC:UnitarySystem, ZONE WAREHOUSE FINE B END_B - STORY GROUND PSZ-AC UNITARY AC, Fraction of Supply Air Flow That Goes Through the Controlling Zone, 1.00000
 Component Sizing Information, Coil:Cooling:DX:SingleSpeed, ZONE WAREHOUSE FINE B END_B - STORY GROUND PSZ-AC 1SPD DX AC CLG COIL, Design Size Rated Air Flow Rate [m3/s], 0.12899
 Component Sizing Information, Coil:Cooling:DX:SingleSpeed, ZONE WAREHOUSE FINE B END_B - STORY GROUND PSZ-AC 1SPD DX AC CLG COIL, Design Size Gross Rated Total Cooling Capacity [W], 2248.01647
 Component Sizing Information, Coil:Cooling:DX:SingleSpeed, ZONE WAREHOUSE FINE B END_B - STORY GROUND PSZ-AC 1SPD DX AC CLG COIL, Design Size Gross Rated Sensible Heat Ratio, 0.80020
 DX Cooling Coil Standard Rating Information, Coil:Cooling:DX:SingleSpeed, ZONE WAREHOUSE FINE B END_B - STORY GROUND PSZ-AC 1SPD DX AC CLG COIL, 2148.0, 2.53, 8.63, 9.93, 9.08, 9.50
 DX Cooling Coil Standard Rating Information, Coil:Cooling:DX:SingleSpeed, ZONE WAREHOUSE FINE B END_B - STORY GROUND PSZ-AC 1SPD DX AC CLG COIL, 2127.3, 2.45, 8.34, 9.57, 9.00,  
 Component Sizing Information, Coil:Heating:Fuel, ZONE WAREHOUSE FINE B END_B - STORY GROUND PSZ-AC GAS HTG COIL, Design Size Nominal Capacity [W], 5925.80311
 Component Sizing Information, Fan:OnOff, ZONE WAREHOUSE FINE B END_B - STORY GROUND PSZ-AC FAN, Design Size Maximum Flow Rate [m3/s], 0.12899
 Component Sizing Information, Coil:Heating:Electric, ZONE WAREHOUSE FINE B END_B - STORY GROUND PSZ-AC NO HEAT, User-Specified Nominal Capacity [W], 0.00000
 Component Sizing Information, Controller:OutdoorAir, ZONE WAREHOUSE FINE C  - STORY GROUND PSZ-AC OA SYSTEM CONTROLLER, Maximum Outdoor Air Flow Rate [m3/s], 5.10898E-002
 Component Sizing Information, Controller:OutdoorAir, ZONE WAREHOUSE FINE C  - STORY GROUND PSZ-AC OA SYSTEM CONTROLLER, Minimum Outdoor Air Flow Rate [m3/s], 6.35032E-003
 Component Sizing Information, AirLoopHVAC:UnitarySystem, ZONE WAREHOUSE FINE C  - STORY GROUND PSZ-AC UNITARY AC, Design Size Supply Air Flow Rate [m3/s], 5.10898E-002
 Component Sizing Information, AirLoopHVAC:UnitarySystem, ZONE WAREHOUSE FINE C  - STORY GROUND PSZ-AC UNITARY AC, Design Size Heating Supply Air Flow Rate [m3/s], 5.10898E-002
 Component Sizing Information, AirLoopHVAC:UnitarySystem, ZONE WAREHOUSE FINE C  - STORY GROUND PSZ-AC UNITARY AC, Design Size Cooling Supply Air Flow Rate [m3/s], 5.10898E-002
 Component Sizing Information, AirLoopHVAC:UnitarySystem, ZONE WAREHOUSE FINE C  - STORY GROUND PSZ-AC UNITARY AC, User-Specified No Load Supply Air Flow Rate [m3/s], 0.00000
 Component Sizing Information, AirLoopHVAC:UnitarySystem, ZONE WAREHOUSE FINE C  - STORY GROUND PSZ-AC UNITARY AC, Design Size Nominal Cooling Capacity [W], 879.48918
 Component Sizing Information, AirLoopHVAC:UnitarySystem, ZONE WAREHOUSE FINE C  - STORY GROUND PSZ-AC UNITARY AC, Design Size Nominal Heating Capacity [W], 2338.26643
 Component Sizing Information, AirLoopHVAC:UnitarySystem, ZONE WAREHOUSE FINE C  - STORY GROUND PSZ-AC UNITARY AC, Design Size Maximum Supply Air Temperature [C], 50.00000
 Component Sizing Information, AirLoopHVAC:UnitarySystem, ZONE WAREHOUSE FINE C  - STORY GROUND PSZ-AC UNITARY AC, User-Specified Maximum Supply Air Temperature [C], 80.00000
 Component Sizing Information, AirLoopHVAC:UnitarySystem, ZONE WAREHOUSE FINE C  - STORY GROUND PSZ-AC UNITARY AC, User-Specified Supplemental Heating Coil Nominal Capacity [W], 0.00000
 Component Sizing Information, AirLoopHVAC:UnitarySystem, ZONE WAREHOUSE FINE C  - STORY GROUND PSZ-AC UNITARY AC, Fraction of Supply Air Flow That Goes Through the Controlling Zone, 1.00000
 Component Sizing Information, Coil:Cooling:DX:SingleSpeed, ZONE WAREHOUSE FINE C  - STORY GROUND PSZ-AC 1SPD DX AC CLG COIL, Design Size Rated Air Flow Rate [m3/s], 5.10898E-002
 Component Sizing Information, Coil:Cooling:DX:SingleSpeed, ZONE WAREHOUSE FINE C  - STORY GROUND PSZ-AC 1SPD DX AC CLG COIL, Design Size Gross Rated Total Cooling Capacity [W], 879.48918
 Component Sizing Information, Coil:Cooling:DX:SingleSpeed, ZONE WAREHOUSE FINE C  - STORY GROUND PSZ-AC 1SPD DX AC CLG COIL, Design Size Gross Rated Sensible Heat Ratio, 0.80054
 DX Cooling Coil Standard Rating Information, Coil:Cooling:DX:SingleSpeed, ZONE WAREHOUSE FINE C  - STORY GROUND PSZ-AC 1SPD DX AC CLG COIL, 839.9, 2.52, 8.61, 9.90, 9.06, 9.47
 DX Cooling Coil Standard Rating Information, Coil:Cooling:DX:SingleSpeed, ZONE WAREHOUSE FINE C  - STORY GROUND PSZ-AC 1SPD DX AC CLG COIL, 831.7, 2.44, 8.32, 9.54, 8.98,  
 Component Sizing Information, Coil:Heating:Fuel, ZONE WAREHOUSE FINE C  - STORY GROUND PSZ-AC GAS HTG COIL, Design Size Nominal Capacity [W], 2338.26643
 Component Sizing Information, Fan:OnOff, ZONE WAREHOUSE FINE C  - STORY GROUND PSZ-AC FAN, Design Size Maximum Flow Rate [m3/s], 5.10898E-002
 Component Sizing Information, Coil:Heating:Electric, ZONE WAREHOUSE FINE C  - STORY GROUND PSZ-AC NO HEAT, User-Specified Nominal Capacity [W], 0.00000
 Component Sizing Information, Controller:OutdoorAir, ZONE WAREHOUSE FINE C END_B - STORY GROUND PSZ-AC OA SYSTEM CONTROLLER, Maximum Outdoor Air Flow Rate [m3/s], 9.01850E-002
 Component Sizing Information, Controller:OutdoorAir, ZONE WAREHOUSE FINE C END_B - STORY GROUND PSZ-AC OA SYSTEM CONTROLLER, Minimum Outdoor Air Flow Rate [m3/s], 6.37129E-003
 Component Sizing Information, AirLoopHVAC:UnitarySystem, ZONE WAREHOUSE FINE C END_B - STORY GROUND PSZ-AC UNITARY AC, Design Size Supply Air Flow Rate [m3/s], 9.01850E-002
 Component Sizing Information, AirLoopHVAC:UnitarySystem, ZONE WAREHOUSE FINE C END_B - STORY GROUND PSZ-AC UNITARY AC, Design Size Heating Supply Air Flow Rate [m3/s], 9.01850E-002
 Component Sizing Information, AirLoopHVAC:UnitarySystem, ZONE WAREHOUSE FINE C END_B - STORY GROUND PSZ-AC UNITARY AC, Design Size Cooling Supply Air Flow Rate [m3/s], 9.01850E-002
 Component Sizing Information, AirLoopHVAC:UnitarySystem, ZONE WAREHOUSE FINE C END_B - STORY GROUND PSZ-AC UNITARY AC, User-Specified No Load Supply Air Flow Rate [m3/s], 0.00000
 Component Sizing Information, AirLoopHVAC:UnitarySystem, ZONE WAREHOUSE FINE C END_B - STORY GROUND PSZ-AC UNITARY AC, Design Size Nominal Cooling Capacity [W], 1557.27020
 Component Sizing Information, AirLoopHVAC:UnitarySystem, ZONE WAREHOUSE FINE C END_B - STORY GROUND PSZ-AC UNITARY AC, Design Size Nominal Heating Capacity [W], 3962.88746
 Component Sizing Information, AirLoopHVAC:UnitarySystem, ZONE WAREHOUSE FINE C END_B - STORY GROUND PSZ-AC UNITARY AC, Design Size Maximum Supply Air Temperature [C], 50.00000
 Component Sizing Information, AirLoopHVAC:UnitarySystem, ZONE WAREHOUSE FINE C END_B - STORY GROUND PSZ-AC UNITARY AC, User-Specified Maximum Supply Air Temperature [C], 80.00000
 Component Sizing Information, AirLoopHVAC:UnitarySystem, ZONE WAREHOUSE FINE C END_B - STORY GROUND PSZ-AC UNITARY AC, User-Specified Supplemental Heating Coil Nominal Capacity [W], 0.00000
 Component Sizing Information, AirLoopHVAC:UnitarySystem, ZONE WAREHOUSE FINE C END_B - STORY GROUND PSZ-AC UNITARY AC, Fraction of Supply Air Flow That Goes Through the Controlling Zone, 1.00000
 Component Sizing Information, Coil:Cooling:DX:SingleSpeed, ZONE WAREHOUSE FINE C END_B - STORY GROUND PSZ-AC 1SPD DX AC CLG COIL, Design Size Rated Air Flow Rate [m3/s], 9.01850E-002
 Component Sizing Information, Coil:Cooling:DX:SingleSpeed, ZONE WAREHOUSE FINE C END_B - STORY GROUND PSZ-AC 1SPD DX AC CLG COIL, Design Size Gross Rated Total Cooling Capacity [W], 1557.27020
 Component Sizing Information, Coil:Cooling:DX:SingleSpeed, ZONE WAREHOUSE FINE C END_B - STORY GROUND PSZ-AC 1SPD DX AC CLG COIL, Design Size Gross Rated Sensible Heat Ratio, 0.80045
 DX Cooling Coil Standard Rating Information, Coil:Cooling:DX:SingleSpeed, ZONE WAREHOUSE FINE C END_B - STORY GROUND PSZ-AC 1SPD DX AC CLG COIL, 1487.4, 2.53, 8.62, 9.91, 9.06, 9.48
 DX Cooling Coil Standard Rating Information, Coil:Cooling:DX:SingleSpeed, ZONE WAREHOUSE FINE C END_B - STORY GROUND PSZ-AC 1SPD DX AC CLG COIL, 1472.8, 2.44, 8.33, 9.55, 8.98,  
 Component Sizing Information, Coil:Heating:Fuel, ZONE WAREHOUSE FINE C END_B - STORY GROUND PSZ-AC GAS HTG COIL, Design Size Nominal Capacity [W], 3962.88746
 Component Sizing Information, Fan:OnOff, ZONE WAREHOUSE FINE C END_B - STORY GROUND PSZ-AC FAN, Design Size Maximum Flow Rate [m3/s], 9.01850E-002
 Component Sizing Information, Coil:Heating:Electric, ZONE WAREHOUSE FINE C END_B - STORY GROUND PSZ-AC NO HEAT, User-Specified Nominal Capacity [W], 0.00000
 Component Sizing Information, Controller:OutdoorAir, ZONE WAREHOUSE OFFICE A  - STORY GROUND PSZ-AC OA SYSTEM CONTROLLER, Maximum Outdoor Air Flow Rate [m3/s], 7.03620E-002
 Component Sizing Information, Controller:OutdoorAir, ZONE WAREHOUSE OFFICE A  - STORY GROUND PSZ-AC OA SYSTEM CONTROLLER, Minimum Outdoor Air Flow Rate [m3/s], 2.51622E-003
 Component Sizing Information, AirLoopHVAC:UnitarySystem, ZONE WAREHOUSE OFFICE A  - STORY GROUND PSZ-AC UNITARY AC, Design Size Supply Air Flow Rate [m3/s], 7.03620E-002
 Component Sizing Information, AirLoopHVAC:UnitarySystem, ZONE WAREHOUSE OFFICE A  - STORY GROUND PSZ-AC UNITARY AC, Design Size Heating Supply Air Flow Rate [m3/s], 7.03620E-002
 Component Sizing Information, AirLoopHVAC:UnitarySystem, ZONE WAREHOUSE OFFICE A  - STORY GROUND PSZ-AC UNITARY AC, Design Size Cooling Supply Air Flow Rate [m3/s], 7.03620E-002
 Component Sizing Information, AirLoopHVAC:UnitarySystem, ZONE WAREHOUSE OFFICE A  - STORY GROUND PSZ-AC UNITARY AC, User-Specified No Load Supply Air Flow Rate [m3/s], 0.00000
 Component Sizing Information, AirLoopHVAC:UnitarySystem, ZONE WAREHOUSE OFFICE A  - STORY GROUND PSZ-AC UNITARY AC, Design Size Nominal Cooling Capacity [W], 1164.74160
 Component Sizing Information, AirLoopHVAC:UnitarySystem, ZONE WAREHOUSE OFFICE A  - STORY GROUND PSZ-AC UNITARY AC, Design Size Nominal Heating Capacity [W], 2567.43115
[...]
Environment:Design Day Misc,294,1191.2,0.1597,7.3069E-002,1.0,15.18,-10.4,ASHRAETau
Environment:WarmupDays,  7
 Warmup Convergence Information,ZONE WAREHOUSE BULK A  - STORY GROUND,SizingPeriod: KODIAK OCTOBER .4% CONDNS DB=>MCWB,4.9320611612E-002,3.2866021327E-002,Pass,Pass,0.0000000000,0.0000000000,Pass,Pass
 Warmup Convergence Information,ZONE WAREHOUSE BULK A END_A - STORY GROUND,SizingPeriod: KODIAK OCTOBER .4% CONDNS DB=>MCWB,5.6994340929E-002,3.6238038996E-002,Pass,Pass,0.0000000000,0.0000000000,Pass,Pass
 Warmup Convergence Information,ZONE WAREHOUSE BULK B  - STORY GROUND,SizingPeriod: KODIAK OCTOBER .4% CONDNS DB=>MCWB,3.2088163865E-002,2.2918721417E-002,Pass,Pass,0.0000000000,0.0000000000,Pass,Pass
 Warmup Convergence Information,ZONE WAREHOUSE BULK B END_A - STORY GROUND,SizingPeriod: KODIAK OCTOBER .4% CONDNS DB=>MCWB,4.2792226008E-002,2.8637934199E-002,Pass,Pass,0.0000000000,0.0000000000,Pass,Pass
 Warmup Convergence Information,ZONE WAREHOUSE BULK C  - STORY GROUND,SizingPeriod: KODIAK OCTOBER .4% CONDNS DB=>MCWB,3.6548155412E-002,2.4046716042E-002,Pass,Pass,0.0000000000,0.0000000000,Pass,Pass
 Warmup Convergence Information,ZONE WAREHOUSE BULK C END_A - STORY GROUND,SizingPeriod: KODIAK OCTOBER .4% CONDNS DB=>MCWB,4.5306476915E-002,2.7190579248E-002,Pass,Pass,0.0000000000,0.0000000000,Pass,Pass
 Warmup Convergence Information,ZONE WAREHOUSE FINE A  - STORY GROUND,SizingPeriod: KODIAK OCTOBER .4% CONDNS DB=>MCWB,4.7104297566E-002,2.9345827568E-002,Pass,Pass,1.8489334390E-002,1.9997501452E-002,Pass,Pass
 Warmup Convergence Information,ZONE WAREHOUSE FINE A END_B - STORY GROUND,SizingPeriod: KODIAK OCTOBER .4% CONDNS DB=>MCWB,5.3048760280E-002,3.5547948265E-002,Pass,Pass,1.0972092756E-002,1.3794068498E-002,Pass,Pass
 Warmup Convergence Information,ZONE WAREHOUSE FINE B  - STORY GROUND,SizingPeriod: KODIAK OCTOBER .4% CONDNS DB=>MCWB,2.8963055729E-002,1.8216686345E-002,Pass,Pass,8.6279646242E-003,6.0748660178E-003,Pass,Pass
 Warmup Convergence Information,ZONE WAREHOUSE FINE B END_B - STORY GROUND,SizingPeriod: KODIAK OCTOBER .4% CONDNS DB=>MCWB,3.7572419678E-002,2.6050964249E-002,Pass,Pass,0.1477074613,0.4126905509,Pass,Pass
 Warmup Convergence Information,ZONE WAREHOUSE FINE C  - STORY GROUND,SizingPeriod: KODIAK OCTOBER .4% CONDNS DB=>MCWB,3.4553284636E-002,2.0633435295E-002,Pass,Pass,0.1775644884,0.6457001386,Pass,Pass
 Warmup Convergence Information,ZONE WAREHOUSE FINE C END_B - STORY GROUND,SizingPeriod: KODIAK OCTOBER .4% CONDNS DB=>MCWB,3.1432205500E-002,2.9742081953E-002,Pass,Pass,3.0130842406E-002,6.9870646445E-002,Pass,Pass
 Warmup Convergence Information,ZONE WAREHOUSE OFFICE A  - STORY GROUND,SizingPeriod: KODIAK OCTOBER .4% CONDNS DB=>MCWB,5.0802955585E-002,0.1079884054,Pass,Pass,5.6830619941E-002,0.2138365022,Pass,Pass
 Warmup Convergence Information,ZONE WAREHOUSE OFFICE B  - STORY GROUND,SizingPeriod: KODIAK OCTOBER .4% CONDNS DB=>MCWB,2.6520396211E-002,1.4126112192E-002,Pass,Pass,4.9294369162E-003,4.5756485244E-003,Pass,Pass
 Warmup Convergence Information,ZONE WAREHOUSE OFFICE C  - STORY GROUND,SizingPeriod: KODIAK OCTOBER .4% CONDNS DB=>MCWB,4.5531764942E-002,0.2070459249,Pass,Pass,5.9329787957E-002,0.2338063445,Pass,Pass
Environment,KODIAK OCTOBER .4% CONDNS WB=>MCDB,SizingPeriod:DesignDay,10/21,10/21,SummerDesignDay,1,N/A,N/A,N/A,N/A,N/A,N/A,Clark and Allen
Environment:Daylight Saving,No,SizingPeriod:DesignDay
Environment:Design Day Data,11.30,6.20,DefaultMultipliers,Wetbulb,10.70,{C},100917,320,5.0,0.00,No,No
Environment:Design Day Misc,294,1191.2,0.1597,7.3069E-002,1.0,15.18,-10.4,ASHRAETau
Environment:WarmupDays, 11
 Warmup Convergence Information,ZONE WAREHOUSE BULK A  - STORY GROUND,SizingPeriod: KODIAK OCTOBER .4% CONDNS WB=>MCDB,4.9694503496E-002,3.3113076782E-002,Pass,Pass,0.0000000000,0.0000000000,Pass,Pass
 Warmup Convergence Information,ZONE WAREHOUSE BULK A END_A - STORY GROUND,SizingPeriod: KODIAK OCTOBER .4% CONDNS WB=>MCDB,5.7129444295E-002,3.6050445951E-002,Pass,Pass,0.0000000000,0.0000000000,Pass,Pass
 Warmup Convergence Information,ZONE WAREHOUSE BULK B  - STORY GROUND,SizingPeriod: KODIAK OCTOBER .4% CONDNS WB=>MCDB,3.2684555005E-002,2.3421499276E-002,Pass,Pass,0.0000000000,0.0000000000,Pass,Pass
 Warmup Convergence Information,ZONE WAREHOUSE BULK B END_A - STORY GROUND,SizingPeriod: KODIAK OCTOBER .4% CONDNS WB=>MCDB,4.3023682452E-002,2.8393436658E-002,Pass,Pass,0.0000000000,0.0000000000,Pass,Pass
 Warmup Convergence Information,ZONE WAREHOUSE BULK C  - STORY GROUND,SizingPeriod: KODIAK OCTOBER .4% CONDNS WB=>MCDB,3.7294486951E-002,2.4376716908E-002,Pass,Pass,0.0000000000,0.0000000000,Pass,Pass
 Warmup Convergence Information,ZONE WAREHOUSE BULK C END_A - STORY GROUND,SizingPeriod: KODIAK OCTOBER .4% CONDNS WB=>MCDB,4.5481829100E-002,2.7078804704E-002,Pass,Pass,0.0000000000,0.0000000000,Pass,Pass
 Warmup Convergence Information,ZONE WAREHOUSE FINE A  - STORY GROUND,SizingPeriod: KODIAK OCTOBER .4% CONDNS WB=>MCDB,4.7116287383E-002,2.9593118407E-002,Pass,Pass,1.7314348099E-002,2.1937922224E-002,Pass,Pass
 Warmup Convergence Information,ZONE WAREHOUSE FINE A END_B - STORY GROUND,SizingPeriod: KODIAK OCTOBER .4% CONDNS WB=>MCDB,4.3209248241E-002,3.8061392839E-002,Pass,Pass,4.0446261383E-002,0.1076613388,Pass,Pass
 Warmup Convergence Information,ZONE WAREHOUSE FINE B  - STORY GROUND,SizingPeriod: KODIAK OCTOBER .4% CONDNS WB=>MCDB,2.9439638551E-002,1.9017181322E-002,Pass,Pass,8.0874305466E-003,5.7693732128E-003,Pass,Pass
 Warmup Convergence Information,ZONE WAREHOUSE FINE B END_B - STORY GROUND,SizingPeriod: KODIAK OCTOBER .4% CONDNS WB=>MCDB,3.6944119474E-002,2.6110958543E-002,Pass,Pass,0.1449421756,0.4895455002,Pass,Pass
 Warmup Convergence Information,ZONE WAREHOUSE FINE C  - STORY GROUND,SizingPeriod: KODIAK OCTOBER .4% CONDNS WB=>MCDB,3.4996823792E-002,2.1167902094E-002,Pass,Pass,0.1595186484,0.4845260609,Pass,Pass
 Warmup Convergence Information,ZONE WAREHOUSE FINE C END_B - STORY GROUND,SizingPeriod: KODIAK OCTOBER .4% CONDNS WB=>MCDB,1.7851167789E-002,2.3485416216E-002,Pass,Pass,3.7800591179E-002,7.8028816547E-002,Pass,Pass
 Warmup Convergence Information,ZONE WAREHOUSE OFFICE A  - STORY GROUND,SizingPeriod: KODIAK OCTOBER .4% CONDNS WB=>MCDB,5.4753267763E-002,0.1983899247,Pass,Pass,7.1126506249E-002,0.3377690624,Pass,Pass
 Warmup Convergence Information,ZONE WAREHOUSE OFFICE B  - STORY GROUND,SizingPeriod: KODIAK OCTOBER .4% CONDNS WB=>MCDB,2.8014569864E-002,7.5788207661E-002,Pass,Pass,2.4573800707E-002,9.2816068553E-002,Pass,Pass
 Warmup Convergence Information,ZONE WAREHOUSE OFFICE C  - STORY GROUND,SizingPeriod: KODIAK OCTOBER .4% CONDNS WB=>MCDB,5.9977616536E-002,0.2250674497,Pass,Pass,7.8295743383E-002,0.4215072685,Pass,Pass
Environment,KODIAK SEPTEMBER .4% CONDNS DB=>MCWB,SizingPeriod:DesignDay,09/21,09/21,SummerDesignDay,1,N/A,N/A,N/A,N/A,N/A,N/A,Clark and Allen
Environment:Daylight Saving,No,SizingPeriod:DesignDay
Environment:Design Day Data,18.00,6.40,DefaultMultipliers,Wetbulb,12.50,{C},100917,320,5.0,0.00,No,No
Environment:Design Day Misc,264,1151.1,0.1777,9.2179E-002,1.0,6.63,1.0,ASHRAETau
Environment:WarmupDays,  8
 Warmup Convergence Information,ZONE WAREHOUSE BULK A  - STORY GROUND,SizingPeriod: KODIAK SEPTEMBER .4% CONDNS DB=>MCWB,5.3718657312E-002,3.4215927265E-002,Pass,Pass,0.0000000000,0.0000000000,Pass,Pass
 Warmup Convergence Information,ZONE WAREHOUSE BULK A END_A - STORY GROUND,SizingPeriod: KODIAK SEPTEMBER .4% CONDNS DB=>MCWB,6.3000523362E-002,3.7310960667E-002,Pass,Pass,0.0000000000,0.0000000000,Pass,Pass
 Warmup Convergence Information,ZONE WAREHOUSE BULK B  - STORY GROUND,SizingPeriod: KODIAK SEPTEMBER .4% CONDNS DB=>MCWB,3.5670821222E-002,2.4833559194E-002,Pass,Pass,0.0000000000,0.0000000000,Pass,Pass
 Warmup Convergence Information,ZONE WAREHOUSE BULK B END_A - STORY GROUND,SizingPeriod: KODIAK SEPTEMBER .4% CONDNS DB=>MCWB,4.9311243194E-002,3.1309680918E-002,Pass,Pass,0.0000000000,0.0000000000,Pass,Pass
 Warmup Convergence Information,ZONE WAREHOUSE BULK C  - STORY GROUND,SizingPeriod: KODIAK SEPTEMBER .4% CONDNS DB=>MCWB,4.1206798347E-002,2.7246930590E-002,Pass,Pass,0.0000000000,0.0000000000,Pass,Pass
 Warmup Convergence Information,ZONE WAREHOUSE BULK C END_A - STORY GROUND,SizingPeriod: KODIAK SEPTEMBER .4% CONDNS DB=>MCWB,5.1715261516E-002,3.0860224479E-002,Pass,Pass,0.0000000000,0.0000000000,Pass,Pass
 Warmup Convergence Information,ZONE WAREHOUSE FINE A  - STORY GROUND,SizingPeriod: KODIAK SEPTEMBER .4% CONDNS DB=>MCWB,4.7763720843E-002,2.8545661192E-002,Pass,Pass,2.0758746872E-002,2.8011137005E-002,Pass,Pass
 Warmup Convergence Information,ZONE WAREHOUSE FINE A END_B - STORY GROUND,SizingPeriod: KODIAK SEPTEMBER .4% CONDNS DB=>MCWB,5.9896775450E-002,3.6356679019E-002,Pass,Pass,1.7473087085E-002,3.8692834511E-002,Pass,Pass
 Warmup Convergence Information,ZONE WAREHOUSE FINE B  - STORY GROUND,SizingPeriod: KODIAK SEPTEMBER .4% CONDNS DB=>MCWB,2.1992006938E-002,1.8938697195E-002,Pass,Pass,1.8795166521E-002,3.7956775840E-002,Pass,Pass
 Warmup Convergence Information,ZONE WAREHOUSE FINE B END_B - STORY GROUND,SizingPeriod: KODIAK SEPTEMBER .4% CONDNS DB=>MCWB,4.4428059352E-002,2.9923017141E-002,Pass,Pass,4.6426590509E-002,5.2290957410E-002,Pass,Pass
 Warmup Convergence Information,ZONE WAREHOUSE FINE C  - STORY GROUND,SizingPeriod: KODIAK SEPTEMBER .4% CONDNS DB=>MCWB,3.7273646277E-002,2.2280204714E-002,Pass,Pass,1.0964917119,9.2916143019,Pass,Pass
 Warmup Convergence Information,ZONE WAREHOUSE FINE C END_B - STORY GROUND,SizingPeriod: KODIAK SEPTEMBER .4% CONDNS DB=>MCWB,4.8480943564E-002,3.2362946671E-002,Pass,Pass,1.3242417442E-002,2.7848586132E-002,Pass,Pass
 Warmup Convergence Information,ZONE WAREHOUSE OFFICE A  - STORY GROUND,SizingPeriod: KODIAK SEPTEMBER .4% CONDNS DB=>MCWB,3.5038045361E-002,0.1224610196,Pass,Pass,8.9090483557E-002,0.5945626671,Pass,Pass
 Warmup Convergence Information,ZONE WAREHOUSE OFFICE B  - STORY GROUND,SizingPeriod: KODIAK SEPTEMBER .4% CONDNS DB=>MCWB,4.7163146762E-002,0.1929210127,Pass,Pass,0.1209702348,0.8066228806,Pass,Pass
 Warmup Convergence Information,ZONE WAREHOUSE OFFICE C  - STORY GROUND,SizingPeriod: KODIAK SEPTEMBER .4% CONDNS DB=>MCWB,2.9227718480E-002,4.2224273114E-002,Pass,Pass,7.1385389589E-002,0.2385667057,Pass,Pass
Environment,KODIAK SEPTEMBER .4% CONDNS WB=>MCDB,SizingPeriod:DesignDay,09/21,09/21,SummerDesignDay,1,N/A,N/A,N/A,N/A,N/A,N/A,Clark and Allen
Environment:Daylight Saving,No,SizingPeriod:DesignDay
Environment:Design Day Data,16.20,6.40,DefaultMultipliers,Wetbulb,13.80,{C},100917,320,5.0,0.00,No,No
Environment:Design Day Misc,264,1151.1,0.1777,9.2179E-002,1.0,6.63,1.0,ASHRAETau
Environment:WarmupDays,  6
 Warmup Convergence Information,ZONE WAREHOUSE BULK A  - STORY GROUND,SizingPeriod: KODIAK SEPTEMBER .4% CONDNS WB=>MCDB,5.4560156145E-002,3.4595680962E-002,Pass,Pass,0.0000000000,0.0000000000,Pass,Pass
 Warmup Convergence Information,ZONE WAREHOUSE BULK A END_A - STORY GROUND,SizingPeriod: KODIAK SEPTEMBER .4% CONDNS WB=>MCDB,6.3136563549E-002,3.7040273121E-002,Pass,Pass,0.0000000000,0.0000000000,Pass,Pass
 Warmup Convergence Information,ZONE WAREHOUSE BULK B  - STORY GROUND,SizingPeriod: KODIAK SEPTEMBER .4% CONDNS WB=>MCDB,3.7161135048E-002,2.5511624625E-002,Pass,Pass,0.0000000000,0.0000000000,Pass,Pass
 Warmup Convergence Information,ZONE WAREHOUSE BULK B END_A - STORY GROUND,SizingPeriod: KODIAK SEPTEMBER .4% CONDNS WB=>MCDB,4.9574862807E-002,3.1140853452E-002,Pass,Pass,0.0000000000,0.0000000000,Pass,Pass
 Warmup Convergence Information,ZONE WAREHOUSE BULK C  - STORY GROUND,SizingPeriod: KODIAK SEPTEMBER .4% CONDNS WB=>MCDB,4.1743691690E-002,2.7166097343E-002,Pass,Pass,0.0000000000,0.0000000000,Pass,Pass
 Warmup Convergence Information,ZONE WAREHOUSE BULK C END_A - STORY GROUND,SizingPeriod: KODIAK SEPTEMBER .4% CONDNS WB=>MCDB,5.1828119164E-002,3.0571820082E-002,Pass,Pass,0.0000000000,0.0000000000,Pass,Pass
 Warmup Convergence Information,ZONE WAREHOUSE FINE A  - STORY GROUND,SizingPeriod: KODIAK SEPTEMBER .4% CONDNS WB=>MCDB,4.9981852047E-002,2.9783660314E-002,Pass,Pass,1.6043345547E-002,2.0289451577E-002,Pass,Pass
 Warmup Convergence Information,ZONE WAREHOUSE FINE A END_B - STORY GROUND,SizingPeriod: KODIAK SEPTEMBER .4% CONDNS WB=>MCDB,6.0210510573E-002,3.5996892172E-002,Pass,Pass,1.8581119206E-002,3.9269139113E-002,Pass,Pass
 Warmup Convergence Information,ZONE WAREHOUSE FINE B  - STORY GROUND,SizingPeriod: KODIAK SEPTEMBER .4% CONDNS WB=>MCDB,3.1753039493E-002,1.8033843612E-002,Pass,Pass,7.9883407853E-003,5.6379543530E-003,Pass,Pass
 Warmup Convergence Information,ZONE WAREHOUSE FINE B END_B - STORY GROUND,SizingPeriod: KODIAK SEPTEMBER .4% CONDNS WB=>MCDB,4.5080274617E-002,2.9689427690E-002,Pass,Pass,2.9944730762E-002,3.3654368153E-002,Pass,Pass
 Warmup Convergence Information,ZONE WAREHOUSE FINE C  - STORY GROUND,SizingPeriod: KODIAK SEPTEMBER .4% CONDNS WB=>MCDB,3.8744598598E-002,2.2688574664E-002,Pass,Pass,0.1406785998,0.3336852783,Pass,Pass
 Warmup Convergence Information,ZONE WAREHOUSE FINE C END_B - STORY GROUND,SizingPeriod: KODIAK SEPTEMBER .4% CONDNS WB=>MCDB,4.8553712579E-002,3.1917320971E-002,Pass,Pass,1.3822933975E-002,2.7272555012E-002,Pass,Pass
 Warmup Convergence Information,ZONE WAREHOUSE OFFICE A  - STORY GROUND,SizingPeriod: KODIAK SEPTEMBER .4% CONDNS WB=>MCDB,3.2534759935E-002,6.9800224355E-002,Pass,Pass,9.0789940391E-002,0.3676186583,Pass,Pass
 Warmup Convergence Information,ZONE WAREHOUSE OFFICE B  - STORY GROUND,SizingPeriod: KODIAK SEPTEMBER .4% CONDNS WB=>MCDB,3.4916331699E-002,0.1453153290,Pass,Pass,0.1055362339,0.6522696135,Pass,Pass
 Warmup Convergence Information,ZONE WAREHOUSE OFFICE C  - STORY GROUND,SizingPeriod: KODIAK SEPTEMBER .4% CONDNS WB=>MCDB,3.3558537514E-002,2.0853383239E-002,Pass,Pass,1.1448985621E-002,2.2229595403E-002,Pass,Pass
Environment,KODIAK ANN CLG .4% CONDNS DB=>MWB HVAC Sizing Pass 1,SizingPeriod:DesignDay,08/21,08/21,SummerDesignDay,1,N/A,N/A,N/A,N/A,N/A,N/A,Clark and Allen
Environment:Daylight Saving,No,SizingPeriod:DesignDay
Environment,KODIAK ANN CLG .4% CONDNS WB=>MDB HVAC Sizing Pass 1,SizingPeriod:DesignDay,08/21,08/21,SummerDesignDay,1,N/A,N/A,N/A,N/A,N/A,N/A,Clark and Allen
Environment:Daylight Saving,No,SizingPeriod:DesignDay
Environment,KODIAK ANN HTG 99.6% CONDNS DB HVAC Sizing Pass 1,SizingPeriod:DesignDay,01/21,01/21,WinterDesignDay,1,N/A,N/A,N/A,N/A,N/A,N/A,Clark and Allen
Environment:Daylight Saving,No,SizingPeriod:DesignDay
Environment,KODIAK APRIL .4% CONDNS DB=>MCWB HVAC Sizing Pass 1,SizingPeriod:DesignDay,04/21,04/21,SummerDesignDay,1,N/A,N/A,N/A,N/A,N/A,N/A,Clark and Allen
Environment:Daylight Saving,No,SizingPeriod:DesignDay
Environment,KODIAK APRIL .4% CONDNS WB=>MCDB HVAC Sizing Pass 1,SizingPeriod:DesignDay,04/21,04/21,SummerDesignDay,1,N/A,N/A,N/A,N/A,N/A,N/A,Clark and Allen
Environment:Daylight Saving,No,SizingPeriod:DesignDay
Environment,KODIAK AUGUST .4% CONDNS DB=>MCWB HVAC Sizing Pass 1,SizingPeriod:DesignDay,08/21,08/21,SummerDesignDay,1,N/A,N/A,N/A,N/A,N/A,N/A,Clark and Allen
Environment:Daylight Saving,No,SizingPeriod:DesignDay
Environment,KODIAK AUGUST .4% CONDNS WB=>MCDB HVAC Sizing Pass 1,SizingPeriod:DesignDay,08/21,08/21,SummerDesignDay,1,N/A,N/A,N/A,N/A,N/A,N/A,Clark and Allen
Environment:Daylight Saving,No,SizingPeriod:DesignDay
Environment,KODIAK DECEMBER .4% CONDNS DB=>MCWB HVAC Sizing Pass 1,SizingPeriod:DesignDay,12/21,12/21,SummerDesignDay,1,N/A,N/A,N/A,N/A,N/A,N/A,Clark and Allen
Environment:Daylight Saving,No,SizingPeriod:DesignDay
Environment,KODIAK DECEMBER .4% CONDNS WB=>MCDB HVAC Sizing Pass 1,SizingPeriod:DesignDay,12/21,12/21,SummerDesignDay,1,N/A,N/A,N/A,N/A,N/A,N/A,Clark and Allen
Environment:Daylight Saving,No,SizingPeriod:DesignDay
Environment,KODIAK FEBRUARY .4% CONDNS DB=>MCWB HVAC Sizing Pass 1,SizingPeriod:DesignDay,02/21,02/21,SummerDesignDay,1,N/A,N/A,N/A,N/A,N/A,N/A,Clark and Allen
Environment:Daylight Saving,No,SizingPeriod:DesignDay
Environment,KODIAK FEBRUARY .4% CONDNS WB=>MCDB HVAC Sizing Pass 1,SizingPeriod:DesignDay,02/21,02/21,SummerDesignDay,1,N/A,N/A,N/A,N/A,N/A,N/A,Clark and Allen
Environment:Daylight Saving,No,SizingPeriod:DesignDay
Environment,KODIAK JANUARY .4% CONDNS DB=>MCWB HVAC Sizing Pass 1,SizingPeriod:DesignDay,01/21,01/21,SummerDesignDay,1,N/A,N/A,N/A,N/A,N/A,N/A,Clark and Allen
Environment:Daylight Saving,No,SizingPeriod:DesignDay
Environment,KODIAK JANUARY .4% CONDNS WB=>MCDB HVAC Sizing Pass 1,SizingPeriod:DesignDay,01/21,01/21,SummerDesignDay,1,N/A,N/A,N/A,N/A,N/A,N/A,Clark and Allen
Environment:Daylight Saving,No,SizingPeriod:DesignDay
Environment,KODIAK JULY .4% CONDNS DB=>MCWB HVAC Sizing Pass 1,SizingPeriod:DesignDay,07/21,07/21,SummerDesignDay,1,N/A,N/A,N/A,N/A,N/A,N/A,Clark and Allen
Environment:Daylight Saving,No,SizingPeriod:DesignDay
Environment,KODIAK JULY .4% CONDNS WB=>MCDB HVAC Sizing Pass 1,SizingPeriod:DesignDay,07/21,07/21,SummerDesignDay,1,N/A,N/A,N/A,N/A,N/A,N/A,Clark and Allen
Environment:Daylight Saving,No,SizingPeriod:DesignDay
Environment,KODIAK JUNE .4% CONDNS DB=>MCWB HVAC Sizing Pass 1,SizingPeriod:DesignDay,06/21,06/21,SummerDesignDay,1,N/A,N/A,N/A,N/A,N/A,N/A,Clark and Allen
Environment:Daylight Saving,No,SizingPeriod:DesignDay
Environment,KODIAK JUNE .4% CONDNS WB=>MCDB HVAC Sizing Pass 1,SizingPeriod:DesignDay,06/21,06/21,SummerDesignDay,1,N/A,N/A,N/A,N/A,N/A,N/A,Clark and Allen
Environment:Daylight Saving,No,SizingPeriod:DesignDay
Environment,KODIAK MARCH .4% CONDNS DB=>MCWB HVAC Sizing Pass 1,SizingPeriod:DesignDay,03/21,03/21,SummerDesignDay,1,N/A,N/A,N/A,N/A,N/A,N/A,Clark and Allen
Environment:Daylight Saving,No,SizingPeriod:DesignDay
Environment,KODIAK MARCH .4% CONDNS WB=>MCDB HVAC Sizing Pass 1,SizingPeriod:DesignDay,03/21,03/21,SummerDesignDay,1,N/A,N/A,N/A,N/A,N/A,N/A,Clark and Allen
Environment:Daylight Saving,No,SizingPeriod:DesignDay
Environment,KODIAK MAY .4% CONDNS DB=>MCWB HVAC Sizing Pass 1,SizingPeriod:DesignDay,05/21,05/21,SummerDesignDay,1,N/A,N/A,N/A,N/A,N/A,N/A,Clark and Allen
Environment:Daylight Saving,No,SizingPeriod:DesignDay
Environment,KODIAK MAY .4% CONDNS WB=>MCDB HVAC Sizing Pass 1,SizingPeriod:DesignDay,05/21,05/21,SummerDesignDay,1,N/A,N/A,N/A,N/A,N/A,N/A,Clark and Allen
Environment:Daylight Saving,No,SizingPeriod:DesignDay
Environment,KODIAK NOVEMBER .4% CONDNS DB=>MCWB HVAC Sizing Pass 1,SizingPeriod:DesignDay,11/21,11/21,SummerDesignDay,1,N/A,N/A,N/A,N/A,N/A,N/A,Clark and Allen
Environment:Daylight Saving,No,SizingPeriod:DesignDay
Environment,KODIAK NOVEMBER .4% CONDNS WB=>MCDB HVAC Sizing Pass 1,SizingPeriod:DesignDay,11/21,11/21,SummerDesignDay,1,N/A,N/A,N/A,N/A,N/A,N/A,Clark and Allen
Environment:Daylight Saving,No,SizingPeriod:DesignDay
Environment,KODIAK OCTOBER .4% CONDNS DB=>MCWB HVAC Sizing Pass 1,SizingPeriod:DesignDay,10/21,10/21,SummerDesignDay,1,N/A,N/A,N/A,N/A,N/A,N/A,Clark and Allen
Environment:Daylight Saving,No,SizingPeriod:DesignDay
Environment,KODIAK OCTOBER .4% CONDNS WB=>MCDB HVAC Sizing Pass 1,SizingPeriod:DesignDay,10/21,10/21,SummerDesignDay,1,N/A,N/A,N/A,N/A,N/A,N/A,Clark and Allen
Environment:Daylight Saving,No,SizingPeriod:DesignDay
Environment,KODIAK SEPTEMBER .4% CONDNS DB=>MCWB HVAC Sizing Pass 1,SizingPeriod:DesignDay,09/21,09/21,SummerDesignDay,1,N/A,N/A,N/A,N/A,N/A,N/A,Clark and Allen
Environment:Daylight Saving,No,SizingPeriod:DesignDay
Environment,KODIAK SEPTEMBER .4% CONDNS WB=>MCDB HVAC Sizing Pass 1,SizingPeriod:DesignDay,09/21,09/21,SummerDesignDay,1,N/A,N/A,N/A,N/A,N/A,N/A,Clark and Allen
Environment:Daylight Saving,No,SizingPeriod:DesignDay
! <Program Control Information:Threads/Parallel Sims>, Threading Supported,Maximum Number of Threads, Env Set Threads (OMP_NUM_THREADS), EP Env Set Threads (EP_OMP_NUM_THREADS), IDF Set Threads, Number of Threads Used (Interior Radiant Exchange), Number Nominal Surfaces, Number Parallel Sims
Program Control:Threads/Parallel Sims, No,1, N/A, N/A, N/A, N/A, N/A, N/A
End of Data
