{
   "completed_at" : "20230424T174727Z",
   "completed_status" : "Success",
   "created_at" : "20230424T174627Z",
   "current_step" : 0,
   "eplusout_err" : "Program Version,EnergyPlus, Version 22.2.0-aa78da9668, YMD=2023.04.24 11:46,\n   ************* Beginning Zone Sizing Calculations\n   ** Warning ** ProcessScheduleInput: Schedule:Day:Interval=\"ECONOMIZER MAX OA FRACTION 70 PCT DEFAULT\", Blank Schedule Type Limits Name input -- will not be validated.\n   ** Warning ** ProcessScheduleInput: Schedule:Day:Interval=\"SCHEDULE DAY 12\", Blank Schedule Type Limits Name input -- will not be validated.\n   ** Warning ** ProcessScheduleInput: Schedule:Day:Interval=\"SCHEDULE DAY 13\", Blank Schedule Type Limits Name input -- will not be validated.\n   ** Warning ** ProcessScheduleInput: Schedule:Day:Interval=\"SCHEDULE DAY 14\", Blank Schedule Type Limits Name input -- will not be validated.\n   ** Warning ** ProcessScheduleInput: Schedule:Day:Interval=\"SCHEDULE DAY 15\", Blank Schedule Type Limits Name input -- will not be validated.\n   ** Warning ** ProcessScheduleInput: Schedule:Day:Interval=\"SCHEDULE DAY 17\", Blank Schedule Type Limits Name input -- will not be validated.\n   ** Warning ** ProcessScheduleInput: Schedule:Day:Interval=\"SCHEDULE DAY 18\", Blank Schedule Type Limits Name input -- will not be validated.\n   ** Warning ** ProcessScheduleInput: Schedule:Day:Interval=\"SCHEDULE DAY 19\", Blank Schedule Type Limits Name input -- will not be validated.\n   ** Warning ** ProcessScheduleInput: Schedule:Day:Interval=\"SCHEDULE DAY 2\", Blank Schedule Type Limits Name input -- will not be validated.\n   ** Warning ** ProcessScheduleInput: Schedule:Day:Interval=\"SCHEDULE DAY 20\", Blank Schedule Type Limits Name input -- will not be validated.\n   ** Warning ** ProcessScheduleInput: Schedule:Day:Interval=\"SCHEDULE DAY 21\", Blank Schedule Type Limits Name input -- will not be validated.\n   ** Warning ** ProcessScheduleInput: Schedule:Day:Interval=\"SCHEDULE DAY 22\", Blank Schedule Type Limits Name input -- will not be validated.\n   ** Warning ** ProcessScheduleInput: Schedule:Day:Interval=\"SCHEDULE DAY 25\", Blank Schedule Type Limits Name input -- will not be validated.\n   ** Warning ** ProcessScheduleInput: Schedule:Day:Interval=\"SCHEDULE DAY 26\", Blank Schedule Type Limits Name input -- will not be validated.\n   ** Warning ** ProcessScheduleInput: Schedule:Day:Interval=\"SCHEDULE DAY 27\", Blank Schedule Type Limits Name input -- will not be validated.\n   ** Warning ** ProcessScheduleInput: Schedule:Day:Interval=\"SCHEDULE DAY 28\", Blank Schedule Type Limits Name input -- will not be validated.\n   ** Warning ** ProcessScheduleInput: Schedule:Day:Interval=\"SCHEDULE DAY 29\", Blank Schedule Type Limits Name input -- will not be validated.\n   ** Warning ** ProcessScheduleInput: Schedule:Day:Interval=\"SCHEDULE DAY 3\", Blank Schedule Type Limits Name input -- will not be validated.\n   ** Warning ** ProcessScheduleInput: Schedule:Day:Interval=\"SCHEDULE DAY 30\", Blank Schedule Type Limits Name input -- will not be validated.\n   ** Warning ** ProcessScheduleInput: Schedule:Day:Interval=\"SCHEDULE DAY 31\", Blank Schedule Type Limits Name input -- will not be validated.\n   ** Warning ** ProcessScheduleInput: Schedule:Day:Interval=\"SCHEDULE DAY 32\", Blank Schedule Type Limits Name input -- will not be validated.\n   ** Warning ** ProcessScheduleInput: Schedule:Day:Interval=\"SCHEDULE DAY 4\", Blank Schedule Type Limits Name input -- will not be validated.\n   ** Warning ** ProcessScheduleInput: Schedule:Day:Interval=\"SCHEDULE DAY 5\", Blank Schedule Type Limits Name input -- will not be validated.\n   ** Warning ** ProcessScheduleInput: Schedule:Day:Interval=\"SCHEDULE DAY 6\", Blank Schedule Type Limits Name input -- will not be validated.\n   ** Warning ** ProcessScheduleInput: Schedule:Day:Interval=\"SCHEDULE DAY 7\", Blank Schedule Type Limits Name input -- will not be validated.\n   ** Warning ** ProcessScheduleInput: Schedule:Day:Interval=\"SCHEDULE DAY 8\", Blank Schedule Type Limits Name input -- will not be validated.\n   ** Warning ** ProcessScheduleInput: Schedule:Day:Interval=\"SCHEDULE DAY 9\", Blank Schedule Type Limits Name input -- will not be validated.\n   ** Warning ** ProcessScheduleInput: Schedule:Constant=\"TEMPORARY PIPE INDOOR AMBIENT TEMP 67.3F\", Blank Schedule Type Limits Name input -- will not be validated.\n   ** Warning ** ProcessScheduleInput: Schedule:Constant=\"ALWAYS OFF DISCRETE\", Blank Schedule Type Limits Name input -- will not be validated.\n   ** Warning ** ProcessScheduleInput: Schedule:Constant=\"ALWAYS ON CONTINUOUS\", Blank Schedule Type Limits Name input -- will not be validated.\n   ** Warning ** CheckUsedConstructions: There are 37 nominally unused constructions in input.\n   **   ~~~   ** For explicit details on each unused construction, use Output:Diagnostics,DisplayExtraWarnings;\n   ** Warning ** GetInternalHeatGains: People=\"WAREHOUSE OFFICE PEOPLE\" has comfort related schedules but no thermal comfort model selected.\n   **   ~~~   ** If schedules are specified for air velocity, clothing insulation, and/or work efficiency but no thermal comfort\n   **   ~~~   ** thermal comfort model is selected, the schedules will be listed as unused schedules in the .err file.\n   **   ~~~   ** To avoid these errors, select a valid thermal comfort model or eliminate these schedules in the PEOPLE input.\n   ** Warning ** GetInternalHeatGains: People=\"WAREHOUSE OFFICE PEOPLE\" has comfort related schedules but no thermal comfort model selected.\n   **   ~~~   ** If schedules are specified for air velocity, clothing insulation, and/or work efficiency but no thermal comfort\n   **   ~~~   ** thermal comfort model is selected, the schedules will be listed as unused schedules in the .err file.\n   **   ~~~   ** To avoid these errors, select a valid thermal comfort model or eliminate these schedules in the PEOPLE input.\n   ** Warning ** GetInternalHeatGains: People=\"WAREHOUSE OFFICE PEOPLE\" has comfort related schedules but no thermal comfort model selected.\n   **   ~~~   ** If schedules are specified for air velocity, clothing insulation, and/or work efficiency but no thermal comfort\n   **   ~~~   ** thermal comfort model is selected, the schedules will be listed as unused schedules in the .err file.\n   **   ~~~   ** To avoid these errors, select a valid thermal comfort model or eliminate these schedules in the PEOPLE input.\n   ** Warning ** GetDaylightingControls: Fraction of zone or space controlled by the Daylighting reference points is < 1.0.\n   **   ~~~   ** ..discovered in Daylighting:Controls=\"ZONE WAREHOUSE BULK A  - STORY GROUND DAYLIGHTINGCONTROLS\", only 0.999 of the zone or space is controlled.\n   ** Warning ** GetDaylightingControls: Fraction of zone or space controlled by the Daylighting reference points is < 1.0.\n   **   ~~~   ** ..discovered in Daylighting:Controls=\"ZONE WAREHOUSE BULK B END_A - STORY GROUND DAYLIGHTINGCONTROLS\", only 0.999 of the zone or space is controlled.\n   ** Warning ** GetDaylightingControls: Fraction of zone or space controlled by the Daylighting reference points is < 1.0.\n   **   ~~~   ** ..discovered in Daylighting:Controls=\"ZONE WAREHOUSE BULK C  - STORY GROUND DAYLIGHTINGCONTROLS\", only 0.999 of the zone or space is controlled.\n   ** Warning ** GetDaylightingControls: Fraction of zone or space controlled by the Daylighting reference points is < 1.0.\n   **   ~~~   ** ..discovered in Daylighting:Controls=\"ZONE WAREHOUSE FINE A  - STORY GROUND DAYLIGHTINGCONTROLS\", only 0.999 of the zone or space is controlled.\n   ** Warning ** GetDaylightingControls: Fraction of zone or space controlled by the Daylighting reference points is < 1.0.\n   **   ~~~   ** ..discovered in Daylighting:Controls=\"ZONE WAREHOUSE FINE B END_B - STORY GROUND DAYLIGHTINGCONTROLS\", only 0.999 of the zone or space is controlled.\n   ** Warning ** GetDaylightingControls: Fraction of zone or space controlled by the Daylighting reference points is < 1.0.\n   **   ~~~   ** ..discovered in Daylighting:Controls=\"ZONE WAREHOUSE FINE C  - STORY GROUND DAYLIGHTINGCONTROLS\", only 0.999 of the zone or space is controlled.\n   ** Warning ** GeometryTransformForDaylighting: Reference point Y Value outside Zone Min/Max Y, Zone=ZONE WAREHOUSE BULK A  - STORY GROUND\n   **   ~~~   ** ...Y Reference Point= -28.26, Zone Minimum Y= -32.92, Zone Maximum Y= -28.35\n   **   ~~~   ** ...Y Reference Distance Outside MaximumY= 9.2962E-002 m.\n   ** Warning ** GeometryTransformForDaylighting: Reference point X Value outside Zone Min/Max X, Zone=ZONE WAREHOUSE BULK B END_A - STORY GROUND\n   **   ~~~   ** ...X Reference Point= -44.72, Zone Minimum X= -49.38, Zone Maximum X= -44.81\n   **   ~~~   ** ...X Reference Distance Outside MaximumX= 9.3188E-002 m.\n   ** Warning ** GeometryTransformForDaylighting: Reference point Y Value outside Zone Min/Max Y, Zone=ZONE WAREHOUSE BULK C  - STORY GROUND\n   **   ~~~   ** ...Y Reference Point= 28.26, Zone Minimum Y= 28.35, Zone Maximum Y= 32.92\n   **   ~~~   ** ...Y Reference Distance Outside MinimumY= 9.2962E-002 m.\n   ** Warning ** GeometryTransformForDaylighting: Reference point Y Value outside Zone Min/Max Y, Zone=ZONE WAREHOUSE FINE A  - STORY GROUND\n   **   ~~~   ** ...Y Reference Point= -28.25, Zone Minimum Y= -32.92, Zone Maximum Y= -28.35\n   **   ~~~   ** ...Y Reference Distance Outside MaximumY= 9.7690E-002 m.\n   ** Warning ** GeometryTransformForDaylighting: Reference point X Value outside Zone Min/Max X, Zone=ZONE WAREHOUSE FINE B END_B - STORY GROUND\n   **   ~~~   ** ...X Reference Point= 44.72, Zone Minimum X= 44.81, Zone Maximum X= 49.38\n   **   ~~~   ** ...X Reference Distance Outside MinimumX= 9.3188E-002 m.\n   ** Warning ** GeometryTransformForDaylighting: Reference point Y Value outside Zone Min/Max Y, Zone=ZONE WAREHOUSE FINE C  - STORY GROUND\n   **   ~~~   ** ...Y Reference Point= 28.25, Zone Minimum Y= 28.35, Zone Maximum Y= 32.92\n   **   ~~~   ** ...Y Reference Distance Outside MinimumY= 9.7690E-002 m.\n   ** Severe  ** WaterHeater:Mixed = 40GAL ELECTRICITY WATER HEATER - 40KBTU/HR 1.0 THERM EFF:  Ambient Temperature Zone not found = \n   ** Warning ** Calculated design cooling load for zone=ZONE WAREHOUSE BULK A  - STORY GROUND is zero.\n   **   ~~~   ** Check Sizing:Zone and ZoneControl:Thermostat inputs.\n   ** Warning ** Calculated design cooling load for zone=ZONE WAREHOUSE BULK A END_A - STORY GROUND is zero.\n   **   ~~~   ** Check Sizing:Zone and ZoneControl:Thermostat inputs.\n   ** Warning ** Calculated design cooling load for zone=ZONE WAREHOUSE BULK B  - STORY GROUND is zero.\n   **   ~~~   ** Check Sizing:Zone and ZoneControl:Thermostat inputs.\n   ** Warning ** Calculated design cooling load for zone=ZONE WAREHOUSE BULK B END_A - STORY GROUND is zero.\n   **   ~~~   ** Check Sizing:Zone and ZoneControl:Thermostat inputs.\n   ** Warning ** Calculated design cooling load for zone=ZONE WAREHOUSE BULK C  - STORY GROUND is zero.\n   **   ~~~   ** Check Sizing:Zone and ZoneControl:Thermostat inputs.\n   ** Warning ** Calculated design cooling load for zone=ZONE WAREHOUSE BULK C END_A - STORY GROUND is zero.\n   **   ~~~   ** Check Sizing:Zone and ZoneControl:Thermostat inputs.\n   ************* Beginning System Sizing Calculations\n   ** Warning ** AirLoopHVAC:UnitarySystem = ZONE WAREHOUSE FINE A  - STORY GROUND PSZ-AC UNITARY AC\n   **   ~~~   ** Method used to determine the cooling supply air flow rate is not specified when cooling coil is present.\n   ** Warning ** AirLoopHVAC:UnitarySystem = ZONE WAREHOUSE FINE A  - STORY GROUND PSZ-AC UNITARY AC\n   **   ~~~   ** Method used to determine the heating supply air flow rate is not specified when heating coil is present.\n   ** Warning ** AirLoopHVAC:UnitarySystem = ZONE WAREHOUSE FINE A END_B - STORY GROUND PSZ-AC UNITARY AC\n   **   ~~~   ** Method used to determine the cooling supply air flow rate is not specified when cooling coil is present.\n   ** Warning ** AirLoopHVAC:UnitarySystem = ZONE WAREHOUSE FINE A END_B - STORY GROUND PSZ-AC UNITARY AC\n   **   ~~~   ** Method used to determine the heating supply air flow rate is not specified when heating coil is present.\n   ** Warning ** AirLoopHVAC:UnitarySystem = ZONE WAREHOUSE FINE B  - STORY GROUND PSZ-AC UNITARY AC\n   **   ~~~   ** Method used to determine the cooling supply air flow rate is not specified when cooling coil is present.\n   ** Warning ** AirLoopHVAC:UnitarySystem = ZONE WAREHOUSE FINE B  - STORY GROUND PSZ-AC UNITARY AC\n   **   ~~~   ** Method used to determine the heating supply air flow rate is not specified when heating coil is present.\n   ** Warning ** AirLoopHVAC:UnitarySystem = ZONE WAREHOUSE FINE B END_B - STORY GROUND PSZ-AC UNITARY AC\n   **   ~~~   ** Method used to determine the cooling supply air flow rate is not specified when cooling coil is present.\n   ** Warning ** AirLoopHVAC:UnitarySystem = ZONE WAREHOUSE FINE B END_B - STORY GROUND PSZ-AC UNITARY AC\n   **   ~~~   ** Method used to determine the heating supply air flow rate is not specified when heating coil is present.\n   ** Warning ** AirLoopHVAC:UnitarySystem = ZONE WAREHOUSE FINE C  - STORY GROUND PSZ-AC UNITARY AC\n   **   ~~~   ** Method used to determine the cooling supply air flow rate is not specified when cooling coil is present.\n   ** Warning ** AirLoopHVAC:UnitarySystem = ZONE WAREHOUSE FINE C  - STORY GROUND PSZ-AC UNITARY AC\n   **   ~~~   ** Method used to determine the heating supply air flow rate is not specified when heating coil is present.\n   ** Warning ** AirLoopHVAC:UnitarySystem = ZONE WAREHOUSE FINE C END_B - STORY GROUND PSZ-AC UNITARY AC\n   **   ~~~   ** Method used to determine the cooling supply air flow rate is not specified when cooling coil is present.\n   ** Warning ** AirLoopHVAC:UnitarySystem = ZONE WAREHOUSE FINE C END_B - STORY GROUND PSZ-AC UNITARY AC\n   **   ~~~   ** Method used to determine the heating supply air flow rate is not specified when heating coil is present.\n   ** Warning ** AirLoopHVAC:UnitarySystem = ZONE WAREHOUSE OFFICE A  - STORY GROUND PSZ-AC UNITARY AC\n   **   ~~~   ** Method used to determine the cooling supply air flow rate is not specified when cooling coil is present.\n   ** Warning ** AirLoopHVAC:UnitarySystem = ZONE WAREHOUSE OFFICE A  - STORY GROUND PSZ-AC UNITARY AC\n   **   ~~~   ** Method used to determine the heating supply air flow rate is not specified when heating coil is present.\n   ** Warning ** AirLoopHVAC:UnitarySystem = ZONE WAREHOUSE OFFICE B  - STORY GROUND PSZ-AC UNITARY AC\n   **   ~~~   ** Method used to determine the cooling supply air flow rate is not specified when cooling coil is present.\n   ** Warning ** AirLoopHVAC:UnitarySystem = ZONE WAREHOUSE OFFICE B  - STORY GROUND PSZ-AC UNITARY AC\n   **   ~~~   ** Method used to determine the heating supply air flow rate is not specified when heating coil is present.\n   ** Warning ** AirLoopHVAC:UnitarySystem = ZONE WAREHOUSE OFFICE C  - STORY GROUND PSZ-AC UNITARY AC\n   **   ~~~   ** Method used to determine the cooling supply air flow rate is not specified when cooling coil is present.\n   ** Warning ** AirLoopHVAC:UnitarySystem = ZONE WAREHOUSE OFFICE C  - STORY GROUND PSZ-AC UNITARY AC\n   **   ~~~   ** Method used to determine the heating supply air flow rate is not specified when heating coil is present.\n   ************* Beginning Plant Sizing Calculations\n   ** Warning ** GetOAControllerInputs: Controller:MechanicalVentilation=\"CONTROLLER MECHANICAL VENTILATION 1\n   **   ~~~   ** Cannot locate a matching DesignSpecification:ZoneAirDistribution object for Zone=\"ZONE WAREHOUSE FINE A  - STORY GROUND\".\n   **   ~~~   ** Using default zone air distribution effectiveness of 1.0 for heating and cooling.\n   ** Warning ** GetOAControllerInputs: Controller:MechanicalVentilation=\"CONTROLLER MECHANICAL VENTILATION 2\n   **   ~~~   ** Cannot locate a matching DesignSpecification:ZoneAirDistribution object for Zone=\"ZONE WAREHOUSE FINE A END_B - STORY GROUND\".\n   **   ~~~   ** Using default zone air distribution effectiveness of 1.0 for heating and cooling.\n   ** Warning ** GetOAControllerInputs: Controller:MechanicalVentilation=\"CONTROLLER MECHANICAL VENTILATION 3\n   **   ~~~   ** Cannot locate a matching DesignSpecification:ZoneAirDistribution object for Zone=\"ZONE WAREHOUSE FINE B  - STORY GROUND\".\n   **   ~~~   ** Using default zone air distribution effectiveness of 1.0 for heating and cooling.\n   ** Warning ** GetOAControllerInputs: Controller:MechanicalVentilation=\"CONTROLLER MECHANICAL VENTILATION 4\n   **   ~~~   ** Cannot locate a matching DesignSpecification:ZoneAirDistribution object for Zone=\"ZONE WAREHOUSE FINE B END_B - STORY GROUND\".\n   **   ~~~   ** Using default zone air distribution effectiveness of 1.0 for heating and cooling.\n   ** Warning ** GetOAControllerInputs: Controller:MechanicalVentilation=\"CONTROLLER MECHANICAL VENTILATION 5\n   **   ~~~   ** Cannot locate a matching DesignSpecification:ZoneAirDistribution object for Zone=\"ZONE WAREHOUSE FINE C  - STORY GROUND\".\n   **   ~~~   ** Using default zone air distribution effectiveness of 1.0 for heating and cooling.\n   ** Warning ** GetOAControllerInputs: Controller:MechanicalVentilation=\"CONTROLLER MECHANICAL VENTILATION 6\n   **   ~~~   ** Cannot locate a matching DesignSpecification:ZoneAirDistribution object for Zone=\"ZONE WAREHOUSE FINE C END_B - STORY GROUND\".\n   **   ~~~   ** Using default zone air distribution effectiveness of 1.0 for heating and cooling.\n   ** Warning ** GetOAControllerInputs: Controller:MechanicalVentilation=\"CONTROLLER MECHANICAL VENTILATION 7\n   **   ~~~   ** Cannot locate a matching DesignSpecification:ZoneAirDistribution object for Zone=\"ZONE WAREHOUSE OFFICE A  - STORY GROUND\".\n   **   ~~~   ** Using default zone air distribution effectiveness of 1.0 for heating and cooling.\n   ** Warning ** GetOAControllerInputs: Controller:MechanicalVentilation=\"CONTROLLER MECHANICAL VENTILATION 8\n   **   ~~~   ** Cannot locate a matching DesignSpecification:ZoneAirDistribution object for Zone=\"ZONE WAREHOUSE OFFICE B  - STORY GROUND\".\n   **   ~~~   ** Using default zone air distribution effectiveness of 1.0 for heating and cooling.\n   ** Warning ** GetOAControllerInputs: Controller:MechanicalVentilation=\"CONTROLLER MECHANICAL VENTILATION 9\n   **   ~~~   ** Cannot locate a matching DesignSpecification:ZoneAirDistribution object for Zone=\"ZONE WAREHOUSE OFFICE C  - STORY GROUND\".\n   **   ~~~   ** Using default zone air distribution effectiveness of 1.0 for heating and cooling.\n   ** Warning ** Check input. Pump nominal power or motor efficiency is set to 0, for pump=MAIN SERVICE WATER LOOP WATER MAINS PRESSURE DRIVEN\n   ** Warning ** Check input. Pump nominal flow rate is set or calculated = 0, for pump=MAIN SERVICE WATER LOOP WATER MAINS PRESSURE DRIVEN\n   ** Warning ** Output:Meter: invalid Key Name=\"NATURALGAS:FACILITY\" - not found.\n   ** Warning ** Output:Meter: invalid Key Name=\"DISTRICTCOOLING:FACILITY\" - not found.\n   ** Warning ** Output:Meter:MeterFileOnly: invalid Key Name=\"NATURALGAS:FACILITY\" - not found.\n   ** Warning ** Output:Meter:MeterFileOnly: invalid Key Name=\"NATURALGAS:FACILITY\" - not found.\n   ** Warning ** Output:Meter:MeterFileOnly requested for \"Electricity:Facility\" (TimeStep), already on \"Output:Meter\". Will report to both eplusout.eso and eplusout.mtr\n   ************* Testing Individual Branch Integrity\n   ************* All Branches passed integrity testing\n   ************* Testing Individual Supply Air Path Integrity\n   ************* All Supply Air Paths passed integrity testing\n   ************* Testing Individual Return Air Path Integrity\n   ************* All Return Air Paths passed integrity testing\n   ************* No node connection errors were found.\n   ** Warning ** Output:Table:Monthly requested with SimulationControl Run Simulation for Weather File Run Periods set to No so Output:Table:Monthly will not be generated\n   ** Warning ** SizePlantLoop: Calculated Plant Sizing Design Volume Flow Rate=[0.00] is too small. Set to 0.0\n   **   ~~~   ** ..occurs for PlantLoop=MAIN SERVICE WATER LOOP\n   ** Warning ** SizePump: Calculated Pump Nominal Volume Flow Rate=[0.00] is too small. Set to 0.0\n   **   ~~~   ** ..occurs for Pump=MAIN SERVICE WATER LOOP WATER MAINS PRESSURE DRIVEN\n   ************* Beginning Simulation\n   ************* Simulation Error Summary *************\n   ************* There are 8 unused objects in input.\n   ************* Use Output:Diagnostics,DisplayUnusedObjects; to see them.\n   ************* There are 32 unused schedules in input.\n   ************* There are 47 unused week schedules in input.\n   ************* There are 120 unused day schedules in input.\n   ************* Use Output:Diagnostics,DisplayUnusedSchedules; to see them.\n   *************\n   ************* ===== Final Error Summary =====\n   ************* The following error categories occurred.  Consider correcting or noting.\n   ************* Nominally Unused Constructions\n   ************* ..The nominally unused constructions warning is provided to alert you to potential conditions that can cause\n   ************* ..extra time during simulation. Each construction is calculated by the algorithm indicated in the HeatBalanceAlgorithm\n   ************* ..object. You may remove the constructions indicated (when you use the DisplayExtraWarnings option).\n   *************\n   ************* EnergyPlus Warmup Error Summary. During Warmup: 0 Warning; 0 Severe Errors.\n   ************* EnergyPlus Sizing Error Summary. During Sizing: 70 Warning; 1 Severe Errors.\n   ************* EnergyPlus Completed Successfully-- 89 Warning; 1 Severe Errors; Elapsed Time=00hr 00min 57.33sec\n",
   "file_paths" : 
   [
      "/private/var/folders/cj/vhw1_9g1151dh76sjlgdyq19k7f3h5/T/osmodel-1682358120-2/resources/run/001_create_typical_building_from_model 1/SR1/generated_files",
      "./files",
      "./weather",
      "../../files",
      "../../weather",
      "./"
   ],
   "hash" : "7CF8C022",
   "seed_file" : "in.osm",
   "started_at" : "20230424T174628Z",
   "steps" : [],
   "updated_at" : "20230424T174727Z",
   "weather_file" : "in.epw"
}