Program Version,EnergyPlus, Version 22.2.0-aa78da9668, YMD=2023.02.28 19:00
! This file shows details about the branches, nodes, and other
! elements of the flow connections.
! This file is intended for use in "debugging" potential problems
! that may also be detected by the program, but may be more easily
! identified by "eye".
! This file is also intended to support software which draws a
! schematic diagram of the HVAC system.
! ===============================================================
! #Nodes,<Number of Unique Nodes>
 #Nodes,287
! <Node>,<NodeNumber>,<Node Name>,<Node Fluid Type>,<# Times Node Referenced After Definition>
 Node,1,ZONE OFFICE WHOLEBUILDING - MD OFFICE A  - STORY GROUND PSZ-AC DIFFUSER OUTLET AIR NODE,Air,4
 Node,2,ZONE OFFICE WHOLEBUILDING - MD OFFICE A  - STORY GROUND RETURN AIR NODE,Air,2
 Node,3,ZONE OFFICE WHOLEBUILDING - MD OFFICE A  - STORY TOP PSZ-AC DIFFUSER OUTLET AIR NODE,Air,4
 Node,4,ZONE OFFICE WHOLEBUILDING - MD OFFICE A  - STORY TOP RETURN AIR NODE,Air,2
 Node,5,ZONE OFFICE WHOLEBUILDING - MD OFFICE A END_A - STORY GROUND PSZ-AC DIFFUSER OUTLET AIR NODE,Air,4
 Node,6,ZONE OFFICE WHOLEBUILDING - MD OFFICE A END_A - STORY GROUND RETURN AIR NODE,Air,2
 Node,7,ZONE OFFICE WHOLEBUILDING - MD OFFICE A END_A - STORY TOP PSZ-AC DIFFUSER OUTLET AIR NODE,Air,4
 Node,8,ZONE OFFICE WHOLEBUILDING - MD OFFICE A END_A - STORY TOP RETURN AIR NODE,Air,2
 Node,9,ZONE OFFICE WHOLEBUILDING - MD OFFICE A END_B - STORY GROUND PSZ-AC DIFFUSER OUTLET AIR NODE,Air,4
 Node,10,ZONE OFFICE WHOLEBUILDING - MD OFFICE A END_B - STORY GROUND RETURN AIR NODE,Air,2
 Node,11,ZONE OFFICE WHOLEBUILDING - MD OFFICE A END_B - STORY TOP PSZ-AC DIFFUSER OUTLET AIR NODE,Air,4
 Node,12,ZONE OFFICE WHOLEBUILDING - MD OFFICE A END_B - STORY TOP RETURN AIR NODE,Air,2
 Node,13,ZONE OFFICE WHOLEBUILDING - MD OFFICE B  - STORY GROUND PSZ-AC DIFFUSER OUTLET AIR NODE,Air,4
 Node,14,ZONE OFFICE WHOLEBUILDING - MD OFFICE B  - STORY GROUND RETURN AIR NODE,Air,2
 Node,15,ZONE OFFICE WHOLEBUILDING - MD OFFICE B  - STORY TOP PSZ-AC DIFFUSER OUTLET AIR NODE,Air,4
 Node,16,ZONE OFFICE WHOLEBUILDING - MD OFFICE B  - STORY TOP RETURN AIR NODE,Air,2
 Node,17,ZONE OFFICE WHOLEBUILDING - MD OFFICE B END_A - STORY GROUND PSZ-AC DIFFUSER OUTLET AIR NODE,Air,4
 Node,18,ZONE OFFICE WHOLEBUILDING - MD OFFICE B END_A - STORY GROUND RETURN AIR NODE,Air,2
 Node,19,ZONE OFFICE WHOLEBUILDING - MD OFFICE B END_A - STORY TOP PSZ-AC DIFFUSER OUTLET AIR NODE,Air,4
 Node,20,ZONE OFFICE WHOLEBUILDING - MD OFFICE B END_A - STORY TOP RETURN AIR NODE,Air,2
 Node,21,ZONE OFFICE WHOLEBUILDING - MD OFFICE B END_B - STORY GROUND PSZ-AC DIFFUSER OUTLET AIR NODE,Air,4
 Node,22,ZONE OFFICE WHOLEBUILDING - MD OFFICE B END_B - STORY GROUND RETURN AIR NODE,Air,2
 Node,23,ZONE OFFICE WHOLEBUILDING - MD OFFICE B END_B - STORY TOP PSZ-AC DIFFUSER OUTLET AIR NODE,Air,4
 Node,24,ZONE OFFICE WHOLEBUILDING - MD OFFICE B END_B - STORY TOP RETURN AIR NODE,Air,2
 Node,25,ZONE OFFICE WHOLEBUILDING - MD OFFICE C  - STORY GROUND PSZ-AC DIFFUSER OUTLET AIR NODE,Air,4
 Node,26,ZONE OFFICE WHOLEBUILDING - MD OFFICE C  - STORY GROUND RETURN AIR NODE,Air,2
 Node,27,ZONE OFFICE WHOLEBUILDING - MD OFFICE C  - STORY TOP PSZ-AC DIFFUSER OUTLET AIR NODE,Air,4
 Node,28,ZONE OFFICE WHOLEBUILDING - MD OFFICE C  - STORY TOP RETURN AIR NODE,Air,2
 Node,29,ZONE OFFICE WHOLEBUILDING - MD OFFICE C END_A - STORY GROUND PSZ-AC DIFFUSER OUTLET AIR NODE,Air,4
 Node,30,ZONE OFFICE WHOLEBUILDING - MD OFFICE C END_A - STORY GROUND RETURN AIR NODE,Air,2
 Node,31,ZONE OFFICE WHOLEBUILDING - MD OFFICE C END_A - STORY TOP PSZ-AC DIFFUSER OUTLET AIR NODE,Air,4
 Node,32,ZONE OFFICE WHOLEBUILDING - MD OFFICE C END_A - STORY TOP RETURN AIR NODE,Air,2
 Node,33,ZONE OFFICE WHOLEBUILDING - MD OFFICE C END_B - STORY GROUND PSZ-AC DIFFUSER OUTLET AIR NODE,Air,4
 Node,34,ZONE OFFICE WHOLEBUILDING - MD OFFICE C END_B - STORY GROUND RETURN AIR NODE,Air,2
 Node,35,ZONE OFFICE WHOLEBUILDING - MD OFFICE C END_B - STORY TOP PSZ-AC DIFFUSER OUTLET AIR NODE,Air,4
 Node,36,ZONE OFFICE WHOLEBUILDING - MD OFFICE C END_B - STORY TOP RETURN AIR NODE,Air,2
 Node,37,ZONE OFFICE WHOLEBUILDING - MD OFFICE A  - STORY GROUND PSZ-AC SUPPLY OUTLET NODE,Air,6
 Node,38,ZONE OFFICE WHOLEBUILDING - MD OFFICE A  - STORY GROUND PSZ-AC DEMAND INLET NODE,Air,3
 Node,39,ZONE OFFICE WHOLEBUILDING - MD OFFICE A  - STORY TOP PSZ-AC SUPPLY OUTLET NODE,Air,6
 Node,40,ZONE OFFICE WHOLEBUILDING - MD OFFICE A  - STORY TOP PSZ-AC DEMAND INLET NODE,Air,3
 Node,41,ZONE OFFICE WHOLEBUILDING - MD OFFICE A END_A - STORY GROUND PSZ-AC SUPPLY OUTLET NODE,Air,6
 Node,42,ZONE OFFICE WHOLEBUILDING - MD OFFICE A END_A - STORY GROUND PSZ-AC DEMAND INLET NODE,Air,3
 Node,43,ZONE OFFICE WHOLEBUILDING - MD OFFICE A END_A - STORY TOP PSZ-AC SUPPLY OUTLET NODE,Air,6
 Node,44,ZONE OFFICE WHOLEBUILDING - MD OFFICE A END_A - STORY TOP PSZ-AC DEMAND INLET NODE,Air,3
 Node,45,ZONE OFFICE WHOLEBUILDING - MD OFFICE A END_B - STORY GROUND PSZ-AC SUPPLY OUTLET NODE,Air,6
 Node,46,ZONE OFFICE WHOLEBUILDING - MD OFFICE A END_B - STORY GROUND PSZ-AC DEMAND INLET NODE,Air,3
 Node,47,ZONE OFFICE WHOLEBUILDING - MD OFFICE A END_B - STORY TOP PSZ-AC SUPPLY OUTLET NODE,Air,6
 Node,48,ZONE OFFICE WHOLEBUILDING - MD OFFICE A END_B - STORY TOP PSZ-AC DEMAND INLET NODE,Air,3
 Node,49,ZONE OFFICE WHOLEBUILDING - MD OFFICE B  - STORY GROUND PSZ-AC SUPPLY OUTLET NODE,Air,6
 Node,50,ZONE OFFICE WHOLEBUILDING - MD OFFICE B  - STORY GROUND PSZ-AC DEMAND INLET NODE,Air,3
 Node,51,ZONE OFFICE WHOLEBUILDING - MD OFFICE B  - STORY TOP PSZ-AC SUPPLY OUTLET NODE,Air,6
 Node,52,ZONE OFFICE WHOLEBUILDING - MD OFFICE B  - STORY TOP PSZ-AC DEMAND INLET NODE,Air,3
 Node,53,ZONE OFFICE WHOLEBUILDING - MD OFFICE B END_A - STORY GROUND PSZ-AC SUPPLY OUTLET NODE,Air,6
 Node,54,ZONE OFFICE WHOLEBUILDING - MD OFFICE B END_A - STORY GROUND PSZ-AC DEMAND INLET NODE,Air,3
 Node,55,ZONE OFFICE WHOLEBUILDING - MD OFFICE B END_A - STORY TOP PSZ-AC SUPPLY OUTLET NODE,Air,6
 Node,56,ZONE OFFICE WHOLEBUILDING - MD OFFICE B END_A - STORY TOP PSZ-AC DEMAND INLET NODE,Air,3
 Node,57,ZONE OFFICE WHOLEBUILDING - MD OFFICE B END_B - STORY GROUND PSZ-AC SUPPLY OUTLET NODE,Air,6
 Node,58,ZONE OFFICE WHOLEBUILDING - MD OFFICE B END_B - STORY GROUND PSZ-AC DEMAND INLET NODE,Air,3
 Node,59,ZONE OFFICE WHOLEBUILDING - MD OFFICE B END_B - STORY TOP PSZ-AC SUPPLY OUTLET NODE,Air,6
 Node,60,ZONE OFFICE WHOLEBUILDING - MD OFFICE B END_B - STORY TOP PSZ-AC DEMAND INLET NODE,Air,3
 Node,61,ZONE OFFICE WHOLEBUILDING - MD OFFICE C  - STORY GROUND PSZ-AC SUPPLY OUTLET NODE,Air,6
 Node,62,ZONE OFFICE WHOLEBUILDING - MD OFFICE C  - STORY GROUND PSZ-AC DEMAND INLET NODE,Air,3
 Node,63,ZONE OFFICE WHOLEBUILDING - MD OFFICE C  - STORY TOP PSZ-AC SUPPLY OUTLET NODE,Air,6
 Node,64,ZONE OFFICE WHOLEBUILDING - MD OFFICE C  - STORY TOP PSZ-AC DEMAND INLET NODE,Air,3
 Node,65,ZONE OFFICE WHOLEBUILDING - MD OFFICE C END_A - STORY GROUND PSZ-AC SUPPLY OUTLET NODE,Air,6
 Node,66,ZONE OFFICE WHOLEBUILDING - MD OFFICE C END_A - STORY GROUND PSZ-AC DEMAND INLET NODE,Air,3
 Node,67,ZONE OFFICE WHOLEBUILDING - MD OFFICE C END_A - STORY TOP PSZ-AC SUPPLY OUTLET NODE,Air,6
 Node,68,ZONE OFFICE WHOLEBUILDING - MD OFFICE C END_A - STORY TOP PSZ-AC DEMAND INLET NODE,Air,3
 Node,69,ZONE OFFICE WHOLEBUILDING - MD OFFICE C END_B - STORY GROUND PSZ-AC SUPPLY OUTLET NODE,Air,6
 Node,70,ZONE OFFICE WHOLEBUILDING - MD OFFICE C END_B - STORY GROUND PSZ-AC DEMAND INLET NODE,Air,3
 Node,71,ZONE OFFICE WHOLEBUILDING - MD OFFICE C END_B - STORY TOP PSZ-AC SUPPLY OUTLET NODE,Air,6
 Node,72,ZONE OFFICE WHOLEBUILDING - MD OFFICE C END_B - STORY TOP PSZ-AC DEMAND INLET NODE,Air,3
 Node,73,ZONE OFFICE WHOLEBUILDING - MD OFFICE A  - STORY GROUND PSZ-AC SUPPLY INLET NODE,Air,3
 Node,74,ZONE OFFICE WHOLEBUILDING - MD OFFICE A  - STORY GROUND PSZ-AC MIXED AIR NODE,Air,6
 Node,75,ZONE OFFICE WHOLEBUILDING - MD OFFICE A  - STORY TOP PSZ-AC SUPPLY INLET NODE,Air,3
 Node,76,ZONE OFFICE WHOLEBUILDING - MD OFFICE A  - STORY TOP PSZ-AC MIXED AIR NODE,Air,6
 Node,77,ZONE OFFICE WHOLEBUILDING - MD OFFICE A END_A - STORY GROUND PSZ-AC SUPPLY INLET NODE,Air,3
 Node,78,ZONE OFFICE WHOLEBUILDING - MD OFFICE A END_A - STORY GROUND PSZ-AC MIXED AIR NODE,Air,6
 Node,79,ZONE OFFICE WHOLEBUILDING - MD OFFICE A END_A - STORY TOP PSZ-AC SUPPLY INLET NODE,Air,3
 Node,80,ZONE OFFICE WHOLEBUILDING - MD OFFICE A END_A - STORY TOP PSZ-AC MIXED AIR NODE,Air,6
 Node,81,ZONE OFFICE WHOLEBUILDING - MD OFFICE A END_B - STORY GROUND PSZ-AC SUPPLY INLET NODE,Air,3
 Node,82,ZONE OFFICE WHOLEBUILDING - MD OFFICE A END_B - STORY GROUND PSZ-AC MIXED AIR NODE,Air,6
 Node,83,ZONE OFFICE WHOLEBUILDING - MD OFFICE A END_B - STORY TOP PSZ-AC SUPPLY INLET NODE,Air,3
 Node,84,ZONE OFFICE WHOLEBUILDING - MD OFFICE A END_B - STORY TOP PSZ-AC MIXED AIR NODE,Air,6
 Node,85,ZONE OFFICE WHOLEBUILDING - MD OFFICE B  - STORY GROUND PSZ-AC SUPPLY INLET NODE,Air,3
 Node,86,ZONE OFFICE WHOLEBUILDING - MD OFFICE B  - STORY GROUND PSZ-AC MIXED AIR NODE,Air,6
 Node,87,ZONE OFFICE WHOLEBUILDING - MD OFFICE B  - STORY TOP PSZ-AC SUPPLY INLET NODE,Air,3
 Node,88,ZONE OFFICE WHOLEBUILDING - MD OFFICE B  - STORY TOP PSZ-AC MIXED AIR NODE,Air,6
 Node,89,ZONE OFFICE WHOLEBUILDING - MD OFFICE B END_A - STORY GROUND PSZ-AC SUPPLY INLET NODE,Air,3
 Node,90,ZONE OFFICE WHOLEBUILDING - MD OFFICE B END_A - STORY GROUND PSZ-AC MIXED AIR NODE,Air,6
 Node,91,ZONE OFFICE WHOLEBUILDING - MD OFFICE B END_A - STORY TOP PSZ-AC SUPPLY INLET NODE,Air,3
 Node,92,ZONE OFFICE WHOLEBUILDING - MD OFFICE B END_A - STORY TOP PSZ-AC MIXED AIR NODE,Air,6
 Node,93,ZONE OFFICE WHOLEBUILDING - MD OFFICE B END_B - STORY GROUND PSZ-AC SUPPLY INLET NODE,Air,3
 Node,94,ZONE OFFICE WHOLEBUILDING - MD OFFICE B END_B - STORY GROUND PSZ-AC MIXED AIR NODE,Air,6
 Node,95,ZONE OFFICE WHOLEBUILDING - MD OFFICE B END_B - STORY TOP PSZ-AC SUPPLY INLET NODE,Air,3
 Node,96,ZONE OFFICE WHOLEBUILDING - MD OFFICE B END_B - STORY TOP PSZ-AC MIXED AIR NODE,Air,6
 Node,97,ZONE OFFICE WHOLEBUILDING - MD OFFICE C  - STORY GROUND PSZ-AC SUPPLY INLET NODE,Air,3
 Node,98,ZONE OFFICE WHOLEBUILDING - MD OFFICE C  - STORY GROUND PSZ-AC MIXED AIR NODE,Air,6
 Node,99,ZONE OFFICE WHOLEBUILDING - MD OFFICE C  - STORY TOP PSZ-AC SUPPLY INLET NODE,Air,3
 Node,100,ZONE OFFICE WHOLEBUILDING - MD OFFICE C  - STORY TOP PSZ-AC MIXED AIR NODE,Air,6
 Node,101,ZONE OFFICE WHOLEBUILDING - MD OFFICE C END_A - STORY GROUND PSZ-AC SUPPLY INLET NODE,Air,3
 Node,102,ZONE OFFICE WHOLEBUILDING - MD OFFICE C END_A - STORY GROUND PSZ-AC MIXED AIR NODE,Air,6
 Node,103,ZONE OFFICE WHOLEBUILDING - MD OFFICE C END_A - STORY TOP PSZ-AC SUPPLY INLET NODE,Air,3
 Node,104,ZONE OFFICE WHOLEBUILDING - MD OFFICE C END_A - STORY TOP PSZ-AC MIXED AIR NODE,Air,6
 Node,105,ZONE OFFICE WHOLEBUILDING - MD OFFICE C END_B - STORY GROUND PSZ-AC SUPPLY INLET NODE,Air,3
 Node,106,ZONE OFFICE WHOLEBUILDING - MD OFFICE C END_B - STORY GROUND PSZ-AC MIXED AIR NODE,Air,6
 Node,107,ZONE OFFICE WHOLEBUILDING - MD OFFICE C END_B - STORY TOP PSZ-AC SUPPLY INLET NODE,Air,3
 Node,108,ZONE OFFICE WHOLEBUILDING - MD OFFICE C END_B - STORY TOP PSZ-AC MIXED AIR NODE,Air,6
 Node,109,MAIN SERVICE WATER LOOP SUPPLY INLET NODE,Water,2
 Node,110,MAIN SERVICE WATER LOOP WATER MAINS PRESSURE DRIVEN OUTLET WATER NODE,Water,1
 Node,111,40GAL ELECTRICITY WATER HEATER - 40KBTU/HR 1.0 THERM EFF SUPPLY INLET WATER NODE,Water,1
 Node,112,40GAL ELECTRICITY WATER HEATER - 40KBTU/HR 1.0 THERM EFF SUPPLY OUTLET WATER NODE,Water,1
 Node,113,PIPE ADIABATIC 1 INLET WATER NODE,Water,1
 Node,114,PIPE ADIABATIC 1 OUTLET WATER NODE,Water,1
 Node,115,PIPE ADIABATIC 3 INLET WATER NODE,Water,1
 Node,116,MAIN SERVICE WATER LOOP SUPPLY OUTLET NODE,Water,4
 Node,117,MAIN SERVICE WATER LOOP DEMAND INLET NODE,Water,2
 Node,118,MAIN SERVICE WATER LOOP DEMAND INLET PIPE NODE,Water,1
 Node,119,PIPE ADIABATIC 2 INLET WATER NODE,Water,1
 Node,120,PIPE ADIABATIC 2 OUTLET WATER NODE,Water,1
 Node,121,MAIN SERVICE WATER LOOP DEMAND BYPASS PIPE INLET NODE,Water,1
 Node,122,MAIN SERVICE WATER LOOP DEMAND BYPASS PIPE OUTLET NODE,Water,1
 Node,123,PIPE ADIABATIC 4 INLET WATER NODE,Water,1
 Node,124,MAIN SERVICE WATER LOOP DEMAND OUTLET NODE,Water,2
 Node,125,OFFICE SHARED SERVICE WATER LOOP SUPPLY INLET NODE,Water,2
 Node,126,OFFICE SHARED SERVICE WATER LOOP CIRCULATOR PUMP OUTLET WATER NODE,Water,1
 Node,127,40GAL NATURALGAS WATER HEATER - 5KBTU/HR SUPPLY INLET WATER NODE,Water,1
 Node,128,40GAL NATURALGAS WATER HEATER - 5KBTU/HR SUPPLY OUTLET WATER NODE,Water,1
 Node,129,PIPE ADIABATIC 5 INLET WATER NODE,Water,1
 Node,130,PIPE ADIABATIC 5 OUTLET WATER NODE,Water,1
 Node,131,PIPE ADIABATIC 7 INLET WATER NODE,Water,1
 Node,132,OFFICE SHARED SERVICE WATER LOOP SUPPLY OUTLET NODE,Water,4
 Node,133,OFFICE SHARED SERVICE WATER LOOP DEMAND INLET NODE,Water,2
 Node,134,OFFICE SHARED SERVICE WATER LOOP PIPE 148.99612397277696FT OUTLET WATER NODE,Water,1
 Node,135,PIPE ADIABATIC 6 INLET WATER NODE,Water,1
 Node,136,PIPE ADIABATIC 6 OUTLET WATER NODE,Water,1
 Node,137,OFFICE WHOLEBUILDING - MD OFFICE - 90.1-2016 WUC 0.13GPM AT 140F INLET WATER NODE,Water,1
 Node,138,OFFICE WHOLEBUILDING - MD OFFICE - 90.1-2016 WUC 0.13GPM AT 140F OUTLET WATER NODE,Water,1
 Node,139,OFFICE SHARED SERVICE WATER LOOP DEMAND BYPASS PIPE INLET NODE,Water,1
 Node,140,OFFICE SHARED SERVICE WATER LOOP DEMAND BYPASS PIPE OUTLET NODE,Water,1
 Node,141,PIPE ADIABATIC 8 INLET WATER NODE,Water,1
 Node,142,OFFICE SHARED SERVICE WATER LOOP DEMAND OUTLET NODE,Water,2
 Node,143,ZONE OFFICE WHOLEBUILDING - MD OFFICE A  - STORY GROUND ZONE AIR NODE,Air,1
 Node,144,ZONE OFFICE WHOLEBUILDING - MD OFFICE A  - STORY TOP ZONE AIR NODE,Air,1
 Node,145,ZONE OFFICE WHOLEBUILDING - MD OFFICE A END_A - STORY GROUND ZONE AIR NODE,Air,1
 Node,146,ZONE OFFICE WHOLEBUILDING - MD OFFICE A END_A - STORY TOP ZONE AIR NODE,Air,1
 Node,147,ZONE OFFICE WHOLEBUILDING - MD OFFICE A END_B - STORY GROUND ZONE AIR NODE,Air,1
 Node,148,ZONE OFFICE WHOLEBUILDING - MD OFFICE A END_B - STORY TOP ZONE AIR NODE,Air,1
 Node,149,ZONE OFFICE WHOLEBUILDING - MD OFFICE B  - STORY GROUND ZONE AIR NODE,Air,1
 Node,150,ZONE OFFICE WHOLEBUILDING - MD OFFICE B  - STORY TOP ZONE AIR NODE,Air,1
 Node,151,ZONE OFFICE WHOLEBUILDING - MD OFFICE B END_A - STORY GROUND ZONE AIR NODE,Air,1
 Node,152,ZONE OFFICE WHOLEBUILDING - MD OFFICE B END_A - STORY TOP ZONE AIR NODE,Air,1
 Node,153,ZONE OFFICE WHOLEBUILDING - MD OFFICE B END_B - STORY GROUND ZONE AIR NODE,Air,1
 Node,154,ZONE OFFICE WHOLEBUILDING - MD OFFICE B END_B - STORY TOP ZONE AIR NODE,Air,1
 Node,155,ZONE OFFICE WHOLEBUILDING - MD OFFICE C  - STORY GROUND ZONE AIR NODE,Air,1
 Node,156,ZONE OFFICE WHOLEBUILDING - MD OFFICE C  - STORY TOP ZONE AIR NODE,Air,1
 Node,157,ZONE OFFICE WHOLEBUILDING - MD OFFICE C END_A - STORY GROUND ZONE AIR NODE,Air,1
 Node,158,ZONE OFFICE WHOLEBUILDING - MD OFFICE C END_A - STORY TOP ZONE AIR NODE,Air,1
 Node,159,ZONE OFFICE WHOLEBUILDING - MD OFFICE C END_B - STORY GROUND ZONE AIR NODE,Air,1
 Node,160,ZONE OFFICE WHOLEBUILDING - MD OFFICE C END_B - STORY TOP ZONE AIR NODE,Air,1
 Node,161,ZONE OFFICE WHOLEBUILDING - MD OFFICE A  - STORY GROUND PSZ-AC DEMAND OUTLET NODE,Air,2
 Node,162,ZONE OFFICE WHOLEBUILDING - MD OFFICE A  - STORY TOP PSZ-AC DEMAND OUTLET NODE,Air,2
 Node,163,ZONE OFFICE WHOLEBUILDING - MD OFFICE A END_A - STORY GROUND PSZ-AC DEMAND OUTLET NODE,Air,2
 Node,164,ZONE OFFICE WHOLEBUILDING - MD OFFICE A END_A - STORY TOP PSZ-AC DEMAND OUTLET NODE,Air,2
 Node,165,ZONE OFFICE WHOLEBUILDING - MD OFFICE A END_B - STORY GROUND PSZ-AC DEMAND OUTLET NODE,Air,2
 Node,166,ZONE OFFICE WHOLEBUILDING - MD OFFICE A END_B - STORY TOP PSZ-AC DEMAND OUTLET NODE,Air,2
 Node,167,ZONE OFFICE WHOLEBUILDING - MD OFFICE B  - STORY GROUND PSZ-AC DEMAND OUTLET NODE,Air,2
 Node,168,ZONE OFFICE WHOLEBUILDING - MD OFFICE B  - STORY TOP PSZ-AC DEMAND OUTLET NODE,Air,2
 Node,169,ZONE OFFICE WHOLEBUILDING - MD OFFICE B END_A - STORY GROUND PSZ-AC DEMAND OUTLET NODE,Air,2
 Node,170,ZONE OFFICE WHOLEBUILDING - MD OFFICE B END_A - STORY TOP PSZ-AC DEMAND OUTLET NODE,Air,2
 Node,171,ZONE OFFICE WHOLEBUILDING - MD OFFICE B END_B - STORY GROUND PSZ-AC DEMAND OUTLET NODE,Air,2
 Node,172,ZONE OFFICE WHOLEBUILDING - MD OFFICE B END_B - STORY TOP PSZ-AC DEMAND OUTLET NODE,Air,2
 Node,173,ZONE OFFICE WHOLEBUILDING - MD OFFICE C  - STORY GROUND PSZ-AC DEMAND OUTLET NODE,Air,2
 Node,174,ZONE OFFICE WHOLEBUILDING - MD OFFICE C  - STORY TOP PSZ-AC DEMAND OUTLET NODE,Air,2
 Node,175,ZONE OFFICE WHOLEBUILDING - MD OFFICE C END_A - STORY GROUND PSZ-AC DEMAND OUTLET NODE,Air,2
 Node,176,ZONE OFFICE WHOLEBUILDING - MD OFFICE C END_A - STORY TOP PSZ-AC DEMAND OUTLET NODE,Air,2
 Node,177,ZONE OFFICE WHOLEBUILDING - MD OFFICE C END_B - STORY GROUND PSZ-AC DEMAND OUTLET NODE,Air,2
 Node,178,ZONE OFFICE WHOLEBUILDING - MD OFFICE C END_B - STORY TOP PSZ-AC DEMAND OUTLET NODE,Air,2
 Node,179,ZONE OFFICE WHOLEBUILDING - MD OFFICE A  - STORY GROUND PSZ-AC OUTDOOR AIR NODE,Air,2
 Node,180,ZONE OFFICE WHOLEBUILDING - MD OFFICE A  - STORY TOP PSZ-AC OUTDOOR AIR NODE,Air,2
 Node,181,ZONE OFFICE WHOLEBUILDING - MD OFFICE A END_A - STORY GROUND PSZ-AC OUTDOOR AIR NODE,Air,2
 Node,182,ZONE OFFICE WHOLEBUILDING - MD OFFICE A END_A - STORY TOP PSZ-AC OUTDOOR AIR NODE,Air,2
 Node,183,ZONE OFFICE WHOLEBUILDING - MD OFFICE A END_B - STORY GROUND PSZ-AC OUTDOOR AIR NODE,Air,2
 Node,184,ZONE OFFICE WHOLEBUILDING - MD OFFICE A END_B - STORY TOP PSZ-AC OUTDOOR AIR NODE,Air,2
 Node,185,ZONE OFFICE WHOLEBUILDING - MD OFFICE B  - STORY GROUND PSZ-AC OUTDOOR AIR NODE,Air,2
 Node,186,ZONE OFFICE WHOLEBUILDING - MD OFFICE B  - STORY TOP PSZ-AC OUTDOOR AIR NODE,Air,2
 Node,187,ZONE OFFICE WHOLEBUILDING - MD OFFICE B END_A - STORY GROUND PSZ-AC OUTDOOR AIR NODE,Air,2
 Node,188,ZONE OFFICE WHOLEBUILDING - MD OFFICE B END_A - STORY TOP PSZ-AC OUTDOOR AIR NODE,Air,2
 Node,189,ZONE OFFICE WHOLEBUILDING - MD OFFICE B END_B - STORY GROUND PSZ-AC OUTDOOR AIR NODE,Air,2
 Node,190,ZONE OFFICE WHOLEBUILDING - MD OFFICE B END_B - STORY TOP PSZ-AC OUTDOOR AIR NODE,Air,2
 Node,191,ZONE OFFICE WHOLEBUILDING - MD OFFICE C  - STORY GROUND PSZ-AC OUTDOOR AIR NODE,Air,2
 Node,192,ZONE OFFICE WHOLEBUILDING - MD OFFICE C  - STORY TOP PSZ-AC OUTDOOR AIR NODE,Air,2
 Node,193,ZONE OFFICE WHOLEBUILDING - MD OFFICE C END_A - STORY GROUND PSZ-AC OUTDOOR AIR NODE,Air,2
 Node,194,ZONE OFFICE WHOLEBUILDING - MD OFFICE C END_A - STORY TOP PSZ-AC OUTDOOR AIR NODE,Air,2
 Node,195,ZONE OFFICE WHOLEBUILDING - MD OFFICE C END_B - STORY GROUND PSZ-AC OUTDOOR AIR NODE,Air,2
 Node,196,ZONE OFFICE WHOLEBUILDING - MD OFFICE C END_B - STORY TOP PSZ-AC OUTDOOR AIR NODE,Air,2
 Node,197,MODEL OUTDOOR AIR NODE,Air,0
 Node,198,ZONE OFFICE WHOLEBUILDING - MD OFFICE A  - STORY GROUND PSZ-AC UNITARY AC HEATING COIL - FAN NODE,Air,2
 Node,199,ZONE OFFICE WHOLEBUILDING - MD OFFICE A  - STORY GROUND PSZ-AC UNITARY AC FAN - SUPPLEMENTAL COIL NODE,Air,2
 Node,200,ZONE OFFICE WHOLEBUILDING - MD OFFICE A  - STORY TOP PSZ-AC UNITARY AC HEATING COIL - FAN NODE,Air,2
 Node,201,ZONE OFFICE WHOLEBUILDING - MD OFFICE A  - STORY TOP PSZ-AC UNITARY AC FAN - SUPPLEMENTAL COIL NODE,Air,2
 Node,202,ZONE OFFICE WHOLEBUILDING - MD OFFICE A END_A - STORY GROUND PSZ-AC UNITARY AC HEATING COIL - FAN NODE,Air,2
 Node,203,ZONE OFFICE WHOLEBUILDING - MD OFFICE A END_A - STORY GROUND PSZ-AC UNITARY AC FAN - SUPPLEMENTAL COIL NODE,Air,2
 Node,204,ZONE OFFICE WHOLEBUILDING - MD OFFICE A END_A - STORY TOP PSZ-AC UNITARY AC HEATING COIL - FAN NODE,Air,2
 Node,205,ZONE OFFICE WHOLEBUILDING - MD OFFICE A END_A - STORY TOP PSZ-AC UNITARY AC FAN - SUPPLEMENTAL COIL NODE,Air,2
 Node,206,ZONE OFFICE WHOLEBUILDING - MD OFFICE A END_B - STORY GROUND PSZ-AC UNITARY AC HEATING COIL - FAN NODE,Air,2
 Node,207,ZONE OFFICE WHOLEBUILDING - MD OFFICE A END_B - STORY GROUND PSZ-AC UNITARY AC FAN - SUPPLEMENTAL COIL NODE,Air,2
 Node,208,ZONE OFFICE WHOLEBUILDING - MD OFFICE A END_B - STORY TOP PSZ-AC UNITARY AC HEATING COIL - FAN NODE,Air,2
 Node,209,ZONE OFFICE WHOLEBUILDING - MD OFFICE A END_B - STORY TOP PSZ-AC UNITARY AC FAN - SUPPLEMENTAL COIL NODE,Air,2
 Node,210,ZONE OFFICE WHOLEBUILDING - MD OFFICE B  - STORY GROUND PSZ-AC UNITARY AC HEATING COIL - FAN NODE,Air,2
 Node,211,ZONE OFFICE WHOLEBUILDING - MD OFFICE B  - STORY GROUND PSZ-AC UNITARY AC FAN - SUPPLEMENTAL COIL NODE,Air,2
 Node,212,ZONE OFFICE WHOLEBUILDING - MD OFFICE B  - STORY TOP PSZ-AC UNITARY AC HEATING COIL - FAN NODE,Air,2
 Node,213,ZONE OFFICE WHOLEBUILDING - MD OFFICE B  - STORY TOP PSZ-AC UNITARY AC FAN - SUPPLEMENTAL COIL NODE,Air,2
 Node,214,ZONE OFFICE WHOLEBUILDING - MD OFFICE B END_A - STORY GROUND PSZ-AC UNITARY AC HEATING COIL - FAN NODE,Air,2
 Node,215,ZONE OFFICE WHOLEBUILDING - MD OFFICE B END_A - STORY GROUND PSZ-AC UNITARY AC FAN - SUPPLEMENTAL COIL NODE,Air,2
 Node,216,ZONE OFFICE WHOLEBUILDING - MD OFFICE B END_A - STORY TOP PSZ-AC UNITARY AC HEATING COIL - FAN NODE,Air,2
 Node,217,ZONE OFFICE WHOLEBUILDING - MD OFFICE B END_A - STORY TOP PSZ-AC UNITARY AC FAN - SUPPLEMENTAL COIL NODE,Air,2
 Node,218,ZONE OFFICE WHOLEBUILDING - MD OFFICE B END_B - STORY GROUND PSZ-AC UNITARY AC HEATING COIL - FAN NODE,Air,2
 Node,219,ZONE OFFICE WHOLEBUILDING - MD OFFICE B END_B - STORY GROUND PSZ-AC UNITARY AC FAN - SUPPLEMENTAL COIL NODE,Air,2
 Node,220,ZONE OFFICE WHOLEBUILDING - MD OFFICE B END_B - STORY TOP PSZ-AC UNITARY AC HEATING COIL - FAN NODE,Air,2
 Node,221,ZONE OFFICE WHOLEBUILDING - MD OFFICE B END_B - STORY TOP PSZ-AC UNITARY AC FAN - SUPPLEMENTAL COIL NODE,Air,2
 Node,222,ZONE OFFICE WHOLEBUILDING - MD OFFICE C  - STORY GROUND PSZ-AC UNITARY AC HEATING COIL - FAN NODE,Air,2
 Node,223,ZONE OFFICE WHOLEBUILDING - MD OFFICE C  - STORY GROUND PSZ-AC UNITARY AC FAN - SUPPLEMENTAL COIL NODE,Air,2
 Node,224,ZONE OFFICE WHOLEBUILDING - MD OFFICE C  - STORY TOP PSZ-AC UNITARY AC HEATING COIL - FAN NODE,Air,2
 Node,225,ZONE OFFICE WHOLEBUILDING - MD OFFICE C  - STORY TOP PSZ-AC UNITARY AC FAN - SUPPLEMENTAL COIL NODE,Air,2
 Node,226,ZONE OFFICE WHOLEBUILDING - MD OFFICE C END_A - STORY GROUND PSZ-AC UNITARY AC HEATING COIL - FAN NODE,Air,2
 Node,227,ZONE OFFICE WHOLEBUILDING - MD OFFICE C END_A - STORY GROUND PSZ-AC UNITARY AC FAN - SUPPLEMENTAL COIL NODE,Air,2
 Node,228,ZONE OFFICE WHOLEBUILDING - MD OFFICE C END_A - STORY TOP PSZ-AC UNITARY AC HEATING COIL - FAN NODE,Air,2
 Node,229,ZONE OFFICE WHOLEBUILDING - MD OFFICE C END_A - STORY TOP PSZ-AC UNITARY AC FAN - SUPPLEMENTAL COIL NODE,Air,2
 Node,230,ZONE OFFICE WHOLEBUILDING - MD OFFICE C END_B - STORY GROUND PSZ-AC UNITARY AC HEATING COIL - FAN NODE,Air,2
 Node,231,ZONE OFFICE WHOLEBUILDING - MD OFFICE C END_B - STORY GROUND PSZ-AC UNITARY AC FAN - SUPPLEMENTAL COIL NODE,Air,2
 Node,232,ZONE OFFICE WHOLEBUILDING - MD OFFICE C END_B - STORY TOP PSZ-AC UNITARY AC HEATING COIL - FAN NODE,Air,2
 Node,233,ZONE OFFICE WHOLEBUILDING - MD OFFICE C END_B - STORY TOP PSZ-AC UNITARY AC FAN - SUPPLEMENTAL COIL NODE,Air,2
 Node,234,ZONE OFFICE WHOLEBUILDING - MD OFFICE A  - STORY GROUND PSZ-AC DIFFUSER INLET AIR NODE,Air,1
 Node,235,ZONE OFFICE WHOLEBUILDING - MD OFFICE A  - STORY TOP PSZ-AC DIFFUSER INLET AIR NODE,Air,1
 Node,236,ZONE OFFICE WHOLEBUILDING - MD OFFICE A END_A - STORY GROUND PSZ-AC DIFFUSER INLET AIR NODE,Air,1
 Node,237,ZONE OFFICE WHOLEBUILDING - MD OFFICE A END_A - STORY TOP PSZ-AC DIFFUSER INLET AIR NODE,Air,1
 Node,238,ZONE OFFICE WHOLEBUILDING - MD OFFICE A END_B - STORY GROUND PSZ-AC DIFFUSER INLET AIR NODE,Air,1
 Node,239,ZONE OFFICE WHOLEBUILDING - MD OFFICE A END_B - STORY TOP PSZ-AC DIFFUSER INLET AIR NODE,Air,1
 Node,240,ZONE OFFICE WHOLEBUILDING - MD OFFICE B  - STORY GROUND PSZ-AC DIFFUSER INLET AIR NODE,Air,1
 Node,241,ZONE OFFICE WHOLEBUILDING - MD OFFICE B  - STORY TOP PSZ-AC DIFFUSER INLET AIR NODE,Air,1
 Node,242,ZONE OFFICE WHOLEBUILDING - MD OFFICE B END_A - STORY GROUND PSZ-AC DIFFUSER INLET AIR NODE,Air,1
 Node,243,ZONE OFFICE WHOLEBUILDING - MD OFFICE B END_A - STORY TOP PSZ-AC DIFFUSER INLET AIR NODE,Air,1
 Node,244,ZONE OFFICE WHOLEBUILDING - MD OFFICE B END_B - STORY GROUND PSZ-AC DIFFUSER INLET AIR NODE,Air,1
 Node,245,ZONE OFFICE WHOLEBUILDING - MD OFFICE B END_B - STORY TOP PSZ-AC DIFFUSER INLET AIR NODE,Air,1
 Node,246,ZONE OFFICE WHOLEBUILDING - MD OFFICE C  - STORY GROUND PSZ-AC DIFFUSER INLET AIR NODE,Air,1
 Node,247,ZONE OFFICE WHOLEBUILDING - MD OFFICE C  - STORY TOP PSZ-AC DIFFUSER INLET AIR NODE,Air,1
 Node,248,ZONE OFFICE WHOLEBUILDING - MD OFFICE C END_A - STORY GROUND PSZ-AC DIFFUSER INLET AIR NODE,Air,1
 Node,249,ZONE OFFICE WHOLEBUILDING - MD OFFICE C END_A - STORY TOP PSZ-AC DIFFUSER INLET AIR NODE,Air,1
 Node,250,ZONE OFFICE WHOLEBUILDING - MD OFFICE C END_B - STORY GROUND PSZ-AC DIFFUSER INLET AIR NODE,Air,1
 Node,251,ZONE OFFICE WHOLEBUILDING - MD OFFICE C END_B - STORY TOP PSZ-AC DIFFUSER INLET AIR NODE,Air,1
 Node,252,ZONE OFFICE WHOLEBUILDING - MD OFFICE A  - STORY GROUND PSZ-AC RELIEF AIR NODE,Air,1
 Node,253,ZONE OFFICE WHOLEBUILDING - MD OFFICE A  - STORY TOP PSZ-AC RELIEF AIR NODE,Air,1
 Node,254,ZONE OFFICE WHOLEBUILDING - MD OFFICE A END_A - STORY GROUND PSZ-AC RELIEF AIR NODE,Air,1
 Node,255,ZONE OFFICE WHOLEBUILDING - MD OFFICE A END_A - STORY TOP PSZ-AC RELIEF AIR NODE,Air,1
 Node,256,ZONE OFFICE WHOLEBUILDING - MD OFFICE A END_B - STORY GROUND PSZ-AC RELIEF AIR NODE,Air,1
 Node,257,ZONE OFFICE WHOLEBUILDING - MD OFFICE A END_B - STORY TOP PSZ-AC RELIEF AIR NODE,Air,1
 Node,258,ZONE OFFICE WHOLEBUILDING - MD OFFICE B  - STORY GROUND PSZ-AC RELIEF AIR NODE,Air,1
 Node,259,ZONE OFFICE WHOLEBUILDING - MD OFFICE B  - STORY TOP PSZ-AC RELIEF AIR NODE,Air,1
 Node,260,ZONE OFFICE WHOLEBUILDING - MD OFFICE B END_A - STORY GROUND PSZ-AC RELIEF AIR NODE,Air,1
 Node,261,ZONE OFFICE WHOLEBUILDING - MD OFFICE B END_A - STORY TOP PSZ-AC RELIEF AIR NODE,Air,1
 Node,262,ZONE OFFICE WHOLEBUILDING - MD OFFICE B END_B - STORY GROUND PSZ-AC RELIEF AIR NODE,Air,1
 Node,263,ZONE OFFICE WHOLEBUILDING - MD OFFICE B END_B - STORY TOP PSZ-AC RELIEF AIR NODE,Air,1
 Node,264,ZONE OFFICE WHOLEBUILDING - MD OFFICE C  - STORY GROUND PSZ-AC RELIEF AIR NODE,Air,1
 Node,265,ZONE OFFICE WHOLEBUILDING - MD OFFICE C  - STORY TOP PSZ-AC RELIEF AIR NODE,Air,1
 Node,266,ZONE OFFICE WHOLEBUILDING - MD OFFICE C END_A - STORY GROUND PSZ-AC RELIEF AIR NODE,Air,1
 Node,267,ZONE OFFICE WHOLEBUILDING - MD OFFICE C END_A - STORY TOP PSZ-AC RELIEF AIR NODE,Air,1
 Node,268,ZONE OFFICE WHOLEBUILDING - MD OFFICE C END_B - STORY GROUND PSZ-AC RELIEF AIR NODE,Air,1
 Node,269,ZONE OFFICE WHOLEBUILDING - MD OFFICE C END_B - STORY TOP PSZ-AC RELIEF AIR NODE,Air,1
 Node,270,ZONE OFFICE WHOLEBUILDING - MD OFFICE A  - STORY GROUND PSZ-AC UNITARY AC COOLING COIL - HEATING COIL NODE,Air,1
 Node,271,ZONE OFFICE WHOLEBUILDING - MD OFFICE A  - STORY TOP PSZ-AC UNITARY AC COOLING COIL - HEATING COIL NODE,Air,1
 Node,272,ZONE OFFICE WHOLEBUILDING - MD OFFICE A END_A - STORY GROUND PSZ-AC UNITARY AC COOLING COIL - HEATING COIL NODE,Air,1
 Node,273,ZONE OFFICE WHOLEBUILDING - MD OFFICE A END_A - STORY TOP PSZ-AC UNITARY AC COOLING COIL - HEATING COIL NODE,Air,1
 Node,274,ZONE OFFICE WHOLEBUILDING - MD OFFICE A END_B - STORY GROUND PSZ-AC UNITARY AC COOLING COIL - HEATING COIL NODE,Air,1
 Node,275,ZONE OFFICE WHOLEBUILDING - MD OFFICE A END_B - STORY TOP PSZ-AC UNITARY AC COOLING COIL - HEATING COIL NODE,Air,1
 Node,276,ZONE OFFICE WHOLEBUILDING - MD OFFICE B  - STORY GROUND PSZ-AC UNITARY AC COOLING COIL - HEATING COIL NODE,Air,1
 Node,277,ZONE OFFICE WHOLEBUILDING - MD OFFICE B  - STORY TOP PSZ-AC UNITARY AC COOLING COIL - HEATING COIL NODE,Air,1
 Node,278,ZONE OFFICE WHOLEBUILDING - MD OFFICE B END_A - STORY GROUND PSZ-AC UNITARY AC COOLING COIL - HEATING COIL NODE,Air,1
 Node,279,ZONE OFFICE WHOLEBUILDING - MD OFFICE B END_A - STORY TOP PSZ-AC UNITARY AC COOLING COIL - HEATING COIL NODE,Air,1
 Node,280,ZONE OFFICE WHOLEBUILDING - MD OFFICE B END_B - STORY GROUND PSZ-AC UNITARY AC COOLING COIL - HEATING COIL NODE,Air,1
 Node,281,ZONE OFFICE WHOLEBUILDING - MD OFFICE B END_B - STORY TOP PSZ-AC UNITARY AC COOLING COIL - HEATING COIL NODE,Air,1
 Node,282,ZONE OFFICE WHOLEBUILDING - MD OFFICE C  - STORY GROUND PSZ-AC UNITARY AC COOLING COIL - HEATING COIL NODE,Air,1
 Node,283,ZONE OFFICE WHOLEBUILDING - MD OFFICE C  - STORY TOP PSZ-AC UNITARY AC COOLING COIL - HEATING COIL NODE,Air,1
 Node,284,ZONE OFFICE WHOLEBUILDING - MD OFFICE C END_A - STORY GROUND PSZ-AC UNITARY AC COOLING COIL - HEATING COIL NODE,Air,1
 Node,285,ZONE OFFICE WHOLEBUILDING - MD OFFICE C END_A - STORY TOP PSZ-AC UNITARY AC COOLING COIL - HEATING COIL NODE,Air,1
 Node,286,ZONE OFFICE WHOLEBUILDING - MD OFFICE C END_B - STORY GROUND PSZ-AC UNITARY AC COOLING COIL - HEATING COIL NODE,Air,1
 Node,287,ZONE OFFICE WHOLEBUILDING - MD OFFICE C END_B - STORY TOP PSZ-AC UNITARY AC COOLING COIL - HEATING COIL NODE,Air,1
! ===============================================================
! Suspicious nodes have 0 references.  It is normal for some nodes, however.
! Listing nodes with 0 references (culled from previous list):
! <Suspicious Node>,<NodeNumber>,<Node Name>,<Node Fluid Type>,<# Times Node Referenced After Definition>
 Suspicious Node,197,MODEL OUTDOOR AIR NODE,Air,0
! ===============================================================
! <#Branch Lists>,<Number of Branch Lists>
 #Branch Lists,22
! <Branch List>,<Branch List Count>,<Branch List Name>,<Loop Name>,<Loop Type>,<Number of Branches>
! <Branch>,<Branch Count>,<Branch Name>,<Loop Name>,<Loop Type>,<Branch Inlet Node Name>,<Branch Outlet Node Name>
 Branch List,1,ZONE OFFICE WHOLEBUILDING - MD OFFICE A  - STORY GROUND PSZ-AC SUPPLY BRANCHES,ZONE OFFICE WHOLEBUILDING - MD OFFICE A  - STORY GROUND PSZ-AC,Air,1
   Branch,1,ZONE OFFICE WHOLEBUILDING - MD OFFICE A  - STORY GROUND PSZ-AC MAIN BRANCH,ZONE OFFICE WHOLEBUILDING - MD OFFICE A  - STORY GROUND PSZ-AC,Air,ZONE OFFICE WHOLEBUILDING - MD OFFICE A  - STORY GROUND PSZ-AC SUPPLY INLET NODE,ZONE OFFICE WHOLEBUILDING - MD OFFICE A  - STORY GROUND PSZ-AC SUPPLY OUTLET NODE
 Branch List,2,ZONE OFFICE WHOLEBUILDING - MD OFFICE A  - STORY TOP PSZ-AC SUPPLY BRANCHES,ZONE OFFICE WHOLEBUILDING - MD OFFICE A  - STORY TOP PSZ-AC,Air,1
   Branch,1,ZONE OFFICE WHOLEBUILDING - MD OFFICE A  - STORY TOP PSZ-AC MAIN BRANCH,ZONE OFFICE WHOLEBUILDING - MD OFFICE A  - STORY TOP PSZ-AC,Air,ZONE OFFICE WHOLEBUILDING - MD OFFICE A  - STORY TOP PSZ-AC SUPPLY INLET NODE,ZONE OFFICE WHOLEBUILDING - MD OFFICE A  - STORY TOP PSZ-AC SUPPLY OUTLET NODE
 Branch List,3,ZONE OFFICE WHOLEBUILDING - MD OFFICE A END_A - STORY GROUND PSZ-AC SUPPLY BRANCHES,ZONE OFFICE WHOLEBUILDING - MD OFFICE A END_A - STORY GROUND PSZ-AC,Air,1
   Branch,1,ZONE OFFICE WHOLEBUILDING - MD OFFICE A END_A - STORY GROUND PSZ-AC MAIN BRANCH,ZONE OFFICE WHOLEBUILDING - MD OFFICE A END_A - STORY GROUND PSZ-AC,Air,ZONE OFFICE WHOLEBUILDING - MD OFFICE A END_A - STORY GROUND PSZ-AC SUPPLY INLET NODE,ZONE OFFICE WHOLEBUILDING - MD OFFICE A END_A - STORY GROUND PSZ-AC SUPPLY OUTLET NODE
 Branch List,4,ZONE OFFICE WHOLEBUILDING - MD OFFICE A END_A - STORY TOP PSZ-AC SUPPLY BRANCHES,ZONE OFFICE WHOLEBUILDING - MD OFFICE A END_A - STORY TOP PSZ-AC,Air,1
   Branch,1,ZONE OFFICE WHOLEBUILDING - MD OFFICE A END_A - STORY TOP PSZ-AC MAIN BRANCH,ZONE OFFICE WHOLEBUILDING - MD OFFICE A END_A - STORY TOP PSZ-AC,Air,ZONE OFFICE WHOLEBUILDING - MD OFFICE A END_A - STORY TOP PSZ-AC SUPPLY INLET NODE,ZONE OFFICE WHOLEBUILDING - MD OFFICE A END_A - STORY TOP PSZ-AC SUPPLY OUTLET NODE
 Branch List,5,ZONE OFFICE WHOLEBUILDING - MD OFFICE A END_B - STORY GROUND PSZ-AC SUPPLY BRANCHES,ZONE OFFICE WHOLEBUILDING - MD OFFICE A END_B - STORY GROUND PSZ-AC,Air,1
   Branch,1,ZONE OFFICE WHOLEBUILDING - MD OFFICE A END_B - STORY GROUND PSZ-AC MAIN BRANCH,ZONE OFFICE WHOLEBUILDING - MD OFFICE A END_B - STORY GROUND PSZ-AC,Air,ZONE OFFICE WHOLEBUILDING - MD OFFICE A END_B - STORY GROUND PSZ-AC SUPPLY INLET NODE,ZONE OFFICE WHOLEBUILDING - MD OFFICE A END_B - STORY GROUND PSZ-AC SUPPLY OUTLET NODE
 Branch List,6,ZONE OFFICE WHOLEBUILDING - MD OFFICE A END_B - STORY TOP PSZ-AC SUPPLY BRANCHES,ZONE OFFICE WHOLEBUILDING - MD OFFICE A END_B - STORY TOP PSZ-AC,Air,1
   Branch,1,ZONE OFFICE WHOLEBUILDING - MD OFFICE A END_B - STORY TOP PSZ-AC MAIN BRANCH,ZONE OFFICE WHOLEBUILDING - MD OFFICE A END_B - STORY TOP PSZ-AC,Air,ZONE OFFICE WHOLEBUILDING - MD OFFICE A END_B - STORY TOP PSZ-AC SUPPLY INLET NODE,ZONE OFFICE WHOLEBUILDING - MD OFFICE A END_B - STORY TOP PSZ-AC SUPPLY OUTLET NODE
 Branch List,7,ZONE OFFICE WHOLEBUILDING - MD OFFICE B  - STORY GROUND PSZ-AC SUPPLY BRANCHES,ZONE OFFICE WHOLEBUILDING - MD OFFICE B  - STORY GROUND PSZ-AC,Air,1
   Branch,1,ZONE OFFICE WHOLEBUILDING - MD OFFICE B  - STORY GROUND PSZ-AC MAIN BRANCH,ZONE OFFICE WHOLEBUILDING - MD OFFICE B  - STORY GROUND PSZ-AC,Air,ZONE OFFICE WHOLEBUILDING - MD OFFICE B  - STORY GROUND PSZ-AC SUPPLY INLET NODE,ZONE OFFICE WHOLEBUILDING - MD OFFICE B  - STORY GROUND PSZ-AC SUPPLY OUTLET NODE
 Branch List,8,ZONE OFFICE WHOLEBUILDING - MD OFFICE B  - STORY TOP PSZ-AC SUPPLY BRANCHES,ZONE OFFICE WHOLEBUILDING - MD OFFICE B  - STORY TOP PSZ-AC,Air,1
   Branch,1,ZONE OFFICE WHOLEBUILDING - MD OFFICE B  - STORY TOP PSZ-AC MAIN BRANCH,ZONE OFFICE WHOLEBUILDING - MD OFFICE B  - STORY TOP PSZ-AC,Air,ZONE OFFICE WHOLEBUILDING - MD OFFICE B  - STORY TOP PSZ-AC SUPPLY INLET NODE,ZONE OFFICE WHOLEBUILDING - MD OFFICE B  - STORY TOP PSZ-AC SUPPLY OUTLET NODE
 Branch List,9,ZONE OFFICE WHOLEBUILDING - MD OFFICE B END_A - STORY GROUND PSZ-AC SUPPLY BRANCHES,ZONE OFFICE WHOLEBUILDING - MD OFFICE B END_A - STORY GROUND PSZ-AC,Air,1
   Branch,1,ZONE OFFICE WHOLEBUILDING - MD OFFICE B END_A - STORY GROUND PSZ-AC MAIN BRANCH,ZONE OFFICE WHOLEBUILDING - MD OFFICE B END_A - STORY GROUND PSZ-AC,Air,ZONE OFFICE WHOLEBUILDING - MD OFFICE B END_A - STORY GROUND PSZ-AC SUPPLY INLET NODE,ZONE OFFICE WHOLEBUILDING - MD OFFICE B END_A - STORY GROUND PSZ-AC SUPPLY OUTLET NODE
 Branch List,10,ZONE OFFICE WHOLEBUILDING - MD OFFICE B END_A - STORY TOP PSZ-AC SUPPLY BRANCHES,ZONE OFFICE WHOLEBUILDING - MD OFFICE B END_A - STORY TOP PSZ-AC,Air,1
   Branch,1,ZONE OFFICE WHOLEBUILDING - MD OFFICE B END_A - STORY TOP PSZ-AC MAIN BRANCH,ZONE OFFICE WHOLEBUILDING - MD OFFICE B END_A - STORY TOP PSZ-AC,Air,ZONE OFFICE WHOLEBUILDING - MD OFFICE B END_A - STORY TOP PSZ-AC SUPPLY INLET NODE,ZONE OFFICE WHOLEBUILDING - MD OFFICE B END_A - STORY TOP PSZ-AC SUPPLY OUTLET NODE
 Branch List,11,ZONE OFFICE WHOLEBUILDING - MD OFFICE B END_B - STORY GROUND PSZ-AC SUPPLY BRANCHES,ZONE OFFICE WHOLEBUILDING - MD OFFICE B END_B - STORY GROUND PSZ-AC,Air,1
   Branch,1,ZONE OFFICE WHOLEBUILDING - MD OFFICE B END_B - STORY GROUND PSZ-AC MAIN BRANCH,ZONE OFFICE WHOLEBUILDING - MD OFFICE B END_B - STORY GROUND PSZ-AC,Air,ZONE OFFICE WHOLEBUILDING - MD OFFICE B END_B - STORY GROUND PSZ-AC SUPPLY INLET NODE,ZONE OFFICE WHOLEBUILDING - MD OFFICE B END_B - STORY GROUND PSZ-AC SUPPLY OUTLET NODE
 Branch List,12,ZONE OFFICE WHOLEBUILDING - MD OFFICE B END_B - STORY TOP PSZ-AC SUPPLY BRANCHES,ZONE OFFICE WHOLEBUILDING - MD OFFICE B END_B - STORY TOP PSZ-AC,Air,1
   Branch,1,ZONE OFFICE WHOLEBUILDING - MD OFFICE B END_B - STORY TOP PSZ-AC MAIN BRANCH,ZONE OFFICE WHOLEBUILDING - MD OFFICE B END_B - STORY TOP PSZ-AC,Air,ZONE OFFICE WHOLEBUILDING - MD OFFICE B END_B - STORY TOP PSZ-AC SUPPLY INLET NODE,ZONE OFFICE WHOLEBUILDING - MD OFFICE B END_B - STORY TOP PSZ-AC SUPPLY OUTLET NODE
 Branch List,13,ZONE OFFICE WHOLEBUILDING - MD OFFICE C  - STORY GROUND PSZ-AC SUPPLY BRANCHES,ZONE OFFICE WHOLEBUILDING - MD OFFICE C  - STORY GROUND PSZ-AC,Air,1
   Branch,1,ZONE OFFICE WHOLEBUILDING - MD OFFICE C  - STORY GROUND PSZ-AC MAIN BRANCH,ZONE OFFICE WHOLEBUILDING - MD OFFICE C  - STORY GROUND PSZ-AC,Air,ZONE OFFICE WHOLEBUILDING - MD OFFICE C  - STORY GROUND PSZ-AC SUPPLY INLET NODE,ZONE OFFICE WHOLEBUILDING - MD OFFICE C  - STORY GROUND PSZ-AC SUPPLY OUTLET NODE
 Branch List,14,ZONE OFFICE WHOLEBUILDING - MD OFFICE C  - STORY TOP PSZ-AC SUPPLY BRANCHES,ZONE OFFICE WHOLEBUILDING - MD OFFICE C  - STORY TOP PSZ-AC,Air,1
   Branch,1,ZONE OFFICE WHOLEBUILDING - MD OFFICE C  - STORY TOP PSZ-AC MAIN BRANCH,ZONE OFFICE WHOLEBUILDING - MD OFFICE C  - STORY TOP PSZ-AC,Air,ZONE OFFICE WHOLEBUILDING - MD OFFICE C  - STORY TOP PSZ-AC SUPPLY INLET NODE,ZONE OFFICE WHOLEBUILDING - MD OFFICE C  - STORY TOP PSZ-AC SUPPLY OUTLET NODE
 Branch List,15,ZONE OFFICE WHOLEBUILDING - MD OFFICE C END_A - STORY GROUND PSZ-AC SUPPLY BRANCHES,ZONE OFFICE WHOLEBUILDING - MD OFFICE C END_A - STORY GROUND PSZ-AC,Air,1
   Branch,1,ZONE OFFICE WHOLEBUILDING - MD OFFICE C END_A - STORY GROUND PSZ-AC MAIN BRANCH,ZONE OFFICE WHOLEBUILDING - MD OFFICE C END_A - STORY GROUND PSZ-AC,Air,ZONE OFFICE WHOLEBUILDING - MD OFFICE C END_A - STORY GROUND PSZ-AC SUPPLY INLET NODE,ZONE OFFICE WHOLEBUILDING - MD OFFICE C END_A - STORY GROUND PSZ-AC SUPPLY OUTLET NODE
 Branch List,16,ZONE OFFICE WHOLEBUILDING - MD OFFICE C END_A - STORY TOP PSZ-AC SUPPLY BRANCHES,ZONE OFFICE WHOLEBUILDING - MD OFFICE C END_A - STORY TOP PSZ-AC,Air,1
   Branch,1,ZONE OFFICE WHOLEBUILDING - MD OFFICE C END_A - STORY TOP PSZ-AC MAIN BRANCH,ZONE OFFICE WHOLEBUILDING - MD OFFICE C END_A - STORY TOP PSZ-AC,Air,ZONE OFFICE WHOLEBUILDING - MD OFFICE C END_A - STORY TOP PSZ-AC SUPPLY INLET NODE,ZONE OFFICE WHOLEBUILDING - MD OFFICE C END_A - STORY TOP PSZ-AC SUPPLY OUTLET NODE
 Branch List,17,ZONE OFFICE WHOLEBUILDING - MD OFFICE C END_B - STORY GROUND PSZ-AC SUPPLY BRANCHES,ZONE OFFICE WHOLEBUILDING - MD OFFICE C END_B - STORY GROUND PSZ-AC,Air,1
   Branch,1,ZONE OFFICE WHOLEBUILDING - MD OFFICE C END_B - STORY GROUND PSZ-AC MAIN BRANCH,ZONE OFFICE WHOLEBUILDING - MD OFFICE C END_B - STORY GROUND PSZ-AC,Air,ZONE OFFICE WHOLEBUILDING - MD OFFICE C END_B - STORY GROUND PSZ-AC SUPPLY INLET NODE,ZONE OFFICE WHOLEBUILDING - MD OFFICE C END_B - STORY GROUND PSZ-AC SUPPLY OUTLET NODE
 Branch List,18,ZONE OFFICE WHOLEBUILDING - MD OFFICE C END_B - STORY TOP PSZ-AC SUPPLY BRANCHES,ZONE OFFICE WHOLEBUILDING - MD OFFICE C END_B - STORY TOP PSZ-AC,Air,1
   Branch,1,ZONE OFFICE WHOLEBUILDING - MD OFFICE C END_B - STORY TOP PSZ-AC MAIN BRANCH,ZONE OFFICE WHOLEBUILDING - MD OFFICE C END_B - STORY TOP PSZ-AC,Air,ZONE OFFICE WHOLEBUILDING - MD OFFICE C END_B - STORY TOP PSZ-AC SUPPLY INLET NODE,ZONE OFFICE WHOLEBUILDING - MD OFFICE C END_B - STORY TOP PSZ-AC SUPPLY OUTLET NODE
 Branch List,19,MAIN SERVICE WATER LOOP SUPPLY BRANCHES,MAIN SERVICE WATER LOOP,Plant Supply,4
   Branch,1,MAIN SERVICE WATER LOOP SUPPLY INLET BRANCH,MAIN SERVICE WATER LOOP,Plant Supply,MAIN SERVICE WATER LOOP SUPPLY INLET NODE,MAIN SERVICE WATER LOOP WATER MAINS PRESSURE DRIVEN OUTLET WATER NODE
   Branch,2,MAIN SERVICE WATER LOOP SUPPLY BRANCH 1,MAIN SERVICE WATER LOOP,Plant Supply,40GAL ELECTRICITY WATER HEATER - 40KBTU/HR 1.0 THERM EFF SUPPLY INLET WATER NODE,40GAL ELECTRICITY WATER HEATER - 40KBTU/HR 1.0 THERM EFF SUPPLY OUTLET WATER NODE
   Branch,3,MAIN SERVICE WATER LOOP SUPPLY BRANCH 2,MAIN SERVICE WATER LOOP,Plant Supply,PIPE ADIABATIC 1 INLET WATER NODE,PIPE ADIABATIC 1 OUTLET WATER NODE
   Branch,4,MAIN SERVICE WATER LOOP SUPPLY OUTLET BRANCH,MAIN SERVICE WATER LOOP,Plant Supply,PIPE ADIABATIC 3 INLET WATER NODE,MAIN SERVICE WATER LOOP SUPPLY OUTLET NODE
 Branch List,20,MAIN SERVICE WATER LOOP DEMAND BRANCHES,MAIN SERVICE WATER LOOP,Plant Demand,4
   Branch,1,MAIN SERVICE WATER LOOP DEMAND INLET BRANCH,MAIN SERVICE WATER LOOP,Plant Demand,MAIN SERVICE WATER LOOP DEMAND INLET NODE,MAIN SERVICE WATER LOOP DEMAND INLET PIPE NODE
   Branch,2,MAIN SERVICE WATER LOOP DEMAND BRANCH 1,MAIN SERVICE WATER LOOP,Plant Demand,PIPE ADIABATIC 2 INLET WATER NODE,PIPE ADIABATIC 2 OUTLET WATER NODE
   Branch,3,MAIN SERVICE WATER LOOP DEMAND BYPASS BRANCH,MAIN SERVICE WATER LOOP,Plant Demand,MAIN SERVICE WATER LOOP DEMAND BYPASS PIPE INLET NODE,MAIN SERVICE WATER LOOP DEMAND BYPASS PIPE OUTLET NODE
   Branch,4,MAIN SERVICE WATER LOOP DEMAND OUTLET BRANCH,MAIN SERVICE WATER LOOP,Plant Demand,PIPE ADIABATIC 4 INLET WATER NODE,MAIN SERVICE WATER LOOP DEMAND OUTLET NODE
 Branch List,21,OFFICE SHARED SERVICE WATER LOOP SUPPLY BRANCHES,OFFICE SHARED SERVICE WATER LOOP,Plant Supply,4
   Branch,1,OFFICE SHARED SERVICE WATER LOOP SUPPLY INLET BRANCH,OFFICE SHARED SERVICE WATER LOOP,Plant Supply,OFFICE SHARED SERVICE WATER LOOP SUPPLY INLET NODE,OFFICE SHARED SERVICE WATER LOOP CIRCULATOR PUMP OUTLET WATER NODE
   Branch,2,OFFICE SHARED SERVICE WATER LOOP SUPPLY BRANCH 1,OFFICE SHARED SERVICE WATER LOOP,Plant Supply,40GAL NATURALGAS WATER HEATER - 5KBTU/HR SUPPLY INLET WATER NODE,40GAL NATURALGAS WATER HEATER - 5KBTU/HR SUPPLY OUTLET WATER NODE
   Branch,3,OFFICE SHARED SERVICE WATER LOOP SUPPLY BRANCH 2,OFFICE SHARED SERVICE WATER LOOP,Plant Supply,PIPE ADIABATIC 5 INLET WATER NODE,PIPE ADIABATIC 5 OUTLET WATER NODE
   Branch,4,OFFICE SHARED SERVICE WATER LOOP SUPPLY OUTLET BRANCH,OFFICE SHARED SERVICE WATER LOOP,Plant Supply,PIPE ADIABATIC 7 INLET WATER NODE,OFFICE SHARED SERVICE WATER LOOP SUPPLY OUTLET NODE
 Branch List,22,OFFICE SHARED SERVICE WATER LOOP DEMAND BRANCHES,OFFICE SHARED SERVICE WATER LOOP,Plant Demand,5
   Branch,1,OFFICE SHARED SERVICE WATER LOOP DEMAND INLET BRANCH,OFFICE SHARED SERVICE WATER LOOP,Plant Demand,OFFICE SHARED SERVICE WATER LOOP DEMAND INLET NODE,OFFICE SHARED SERVICE WATER LOOP PIPE 148.99612397277696FT OUTLET WATER NODE
   Branch,2,OFFICE SHARED SERVICE WATER LOOP DEMAND BRANCH 1,OFFICE SHARED SERVICE WATER LOOP,Plant Demand,PIPE ADIABATIC 6 INLET WATER NODE,PIPE ADIABATIC 6 OUTLET WATER NODE
   Branch,3,OFFICE SHARED SERVICE WATER LOOP DEMAND BRANCH 2,OFFICE SHARED SERVICE WATER LOOP,Plant Demand,OFFICE WHOLEBUILDING - MD OFFICE - 90.1-2016 WUC 0.13GPM AT 140F INLET WATER NODE,OFFICE WHOLEBUILDING - MD OFFICE - 90.1-2016 WUC 0.13GPM AT 140F OUTLET WATER NODE
   Branch,4,OFFICE SHARED SERVICE WATER LOOP DEMAND BYPASS BRANCH,OFFICE SHARED SERVICE WATER LOOP,Plant Demand,OFFICE SHARED SERVICE WATER LOOP DEMAND BYPASS PIPE INLET NODE,OFFICE SHARED SERVICE WATER LOOP DEMAND BYPASS PIPE OUTLET NODE
   Branch,5,OFFICE SHARED SERVICE WATER LOOP DEMAND OUTLET BRANCH,OFFICE SHARED SERVICE WATER LOOP,Plant Demand,PIPE ADIABATIC 8 INLET WATER NODE,OFFICE SHARED SERVICE WATER LOOP DEMAND OUTLET NODE
! ===============================================================
! <#Supply Air Paths>,<Number of Supply Air Paths>
 #Supply Air Paths,18
! <Supply Air Path>,<Supply Air Path Count>,<Supply Air Path Name>,<AirLoopHVAC Name>
! <#Components on Supply Air Path>,<Number of Components>
! <Supply Air Path Component>,<Component Count>,<Component Type>,<Component Name>,<AirLoopHVAC Name>
! <#Outlet Nodes on Supply Air Path Component>,<Number of Nodes>
! <Supply Air Path Component Nodes>,<Node Count>,<Component Type>,<Component Name>,<Inlet Node Name>,<Outlet Node Name>,<AirLoopHVAC Name>
 Supply Air Path,1,ZONE OFFICE WHOLEBUILDING - MD OFFICE A  - STORY GROUND PSZ-AC ZONE OFFICE WHOLEBUILDING - MD OFFICE A  - STORY GROUND PSZ-AC DEMAND INLET NODE SUPPLY PATH,ZONE OFFICE WHOLEBUILDING - MD OFFICE A  - STORY GROUND PSZ-AC
   #Components on Supply Air Path,1
   Supply Air Path Component,1,AIRLOOPHVAC:ZONESPLITTER,AIR LOOP HVAC ZONE SPLITTER 1,ZONE OFFICE WHOLEBUILDING - MD OFFICE A  - STORY GROUND PSZ-AC
     #Outlet Nodes on Supply Air Path Component,1
     Supply Air Path Component Nodes,1,AIRLOOPHVAC:ZONESPLITTER,AIR LOOP HVAC ZONE SPLITTER 1,ZONE OFFICE WHOLEBUILDING - MD OFFICE A  - STORY GROUND PSZ-AC DEMAND INLET NODE,ZONE OFFICE WHOLEBUILDING - MD OFFICE A  - STORY GROUND PSZ-AC DIFFUSER INLET AIR NODE,ZONE OFFICE WHOLEBUILDING - MD OFFICE A  - STORY GROUND PSZ-AC
! <#Nodes on Supply Air Path>,<Number of Nodes>
! <Supply Air Path Node>,<Node Type>,<Node Count>,<Node Name>,<AirLoopHVAC Name>
#Nodes on Supply Air Path,2
   Supply Air Path Node,Inlet Node,1,ZONE OFFICE WHOLEBUILDING - MD OFFICE A  - STORY GROUND PSZ-AC DEMAND INLET NODE,ZONE OFFICE WHOLEBUILDING - MD OFFICE A  - STORY GROUND PSZ-AC
   Supply Air Path Node,Outlet Node,2,ZONE OFFICE WHOLEBUILDING - MD OFFICE A  - STORY GROUND PSZ-AC DIFFUSER INLET AIR NODE,ZONE OFFICE WHOLEBUILDING - MD OFFICE A  - STORY GROUND PSZ-AC
 Supply Air Path,2,ZONE OFFICE WHOLEBUILDING - MD OFFICE A  - STORY TOP PSZ-AC ZONE OFFICE WHOLEBUILDING - MD OFFICE A  - STORY TOP PSZ-AC DEMAND INLET NODE SUPPLY PATH,ZONE OFFICE WHOLEBUILDING - MD OFFICE A  - STORY TOP PSZ-AC
   #Components on Supply Air Path,1
   Supply Air Path Component,1,AIRLOOPHVAC:ZONESPLITTER,AIR LOOP HVAC ZONE SPLITTER 10,ZONE OFFICE WHOLEBUILDING - MD OFFICE A  - STORY TOP PSZ-AC
     #Outlet Nodes on Supply Air Path Component,1
     Supply Air Path Component Nodes,1,AIRLOOPHVAC:ZONESPLITTER,AIR LOOP HVAC ZONE SPLITTER 10,ZONE OFFICE WHOLEBUILDING - MD OFFICE A  - STORY TOP PSZ-AC DEMAND INLET NODE,ZONE OFFICE WHOLEBUILDING - MD OFFICE A  - STORY TOP PSZ-AC DIFFUSER INLET AIR NODE,ZONE OFFICE WHOLEBUILDING - MD OFFICE A  - STORY TOP PSZ-AC
! <#Nodes on Supply Air Path>,<Number of Nodes>
! <Supply Air Path Node>,<Node Type>,<Node Count>,<Node Name>,<AirLoopHVAC Name>
#Nodes on Supply Air Path,2
   Supply Air Path Node,Inlet Node,1,ZONE OFFICE WHOLEBUILDING - MD OFFICE A  - STORY TOP PSZ-AC DEMAND INLET NODE,ZONE OFFICE WHOLEBUILDING - MD OFFICE A  - STORY TOP PSZ-AC
   Supply Air Path Node,Outlet Node,2,ZONE OFFICE WHOLEBUILDING - MD OFFICE A  - STORY TOP PSZ-AC DIFFUSER INLET AIR NODE,ZONE OFFICE WHOLEBUILDING - MD OFFICE A  - STORY TOP PSZ-AC
 Supply Air Path,3,ZONE OFFICE WHOLEBUILDING - MD OFFICE A END_A - STORY GROUND PSZ-AC ZONE OFFICE WHOLEBUILDING - MD OFFICE A END_A - STORY GROUND PSZ-AC DEMAND INLET NODE SUPPLY PATH,ZONE OFFICE WHOLEBUILDING - MD OFFICE A END_A - STORY GROUND PSZ-AC
   #Components on Supply Air Path,1
   Supply Air Path Component,1,AIRLOOPHVAC:ZONESPLITTER,AIR LOOP HVAC ZONE SPLITTER 2,ZONE OFFICE WHOLEBUILDING - MD OFFICE A END_A - STORY GROUND PSZ-AC
     #Outlet Nodes on Supply Air Path Component,1
     Supply Air Path Component Nodes,1,AIRLOOPHVAC:ZONESPLITTER,AIR LOOP HVAC ZONE SPLITTER 2,ZONE OFFICE WHOLEBUILDING - MD OFFICE A END_A - STORY GROUND PSZ-AC DEMAND INLET NODE,ZONE OFFICE WHOLEBUILDING - MD OFFICE A END_A - STORY GROUND PSZ-AC DIFFUSER INLET AIR NODE,ZONE OFFICE WHOLEBUILDING - MD OFFICE A END_A - STORY GROUND PSZ-AC
! <#Nodes on Supply Air Path>,<Number of Nodes>
! <Supply Air Path Node>,<Node Type>,<Node Count>,<Node Name>,<AirLoopHVAC Name>
#Nodes on Supply Air Path,2
   Supply Air Path Node,Inlet Node,1,ZONE OFFICE WHOLEBUILDING - MD OFFICE A END_A - STORY GROUND PSZ-AC DEMAND INLET NODE,ZONE OFFICE WHOLEBUILDING - MD OFFICE A END_A - STORY GROUND PSZ-AC
   Supply Air Path Node,Outlet Node,2,ZONE OFFICE WHOLEBUILDING - MD OFFICE A END_A - STORY GROUND PSZ-AC DIFFUSER INLET AIR NODE,ZONE OFFICE WHOLEBUILDING - MD OFFICE A END_A - STORY GROUND PSZ-AC
 Supply Air Path,4,ZONE OFFICE WHOLEBUILDING - MD OFFICE A END_A - STORY TOP PSZ-AC ZONE OFFICE WHOLEBUILDING - MD OFFICE A END_A - STORY TOP PSZ-AC DEMAND INLET NODE SUPPLY PATH,ZONE OFFICE WHOLEBUILDING - MD OFFICE A END_A - STORY TOP PSZ-AC
   #Components on Supply Air Path,1
   Supply Air Path Component,1,AIRLOOPHVAC:ZONESPLITTER,AIR LOOP HVAC ZONE SPLITTER 11,ZONE OFFICE WHOLEBUILDING - MD OFFICE A END_A - STORY TOP PSZ-AC
     #Outlet Nodes on Supply Air Path Component,1
     Supply Air Path Component Nodes,1,AIRLOOPHVAC:ZONESPLITTER,AIR LOOP HVAC ZONE SPLITTER 11,ZONE OFFICE WHOLEBUILDING - MD OFFICE A END_A - STORY TOP PSZ-AC DEMAND INLET NODE,ZONE OFFICE WHOLEBUILDING - MD OFFICE A END_A - STORY TOP PSZ-AC DIFFUSER INLET AIR NODE,ZONE OFFICE WHOLEBUILDING - MD OFFICE A END_A - STORY TOP PSZ-AC
! <#Nodes on Supply Air Path>,<Number of Nodes>
! <Supply Air Path Node>,<Node Type>,<Node Count>,<Node Name>,<AirLoopHVAC Name>
#Nodes on Supply Air Path,2
   Supply Air Path Node,Inlet Node,1,ZONE OFFICE WHOLEBUILDING - MD OFFICE A END_A - STORY TOP PSZ-AC DEMAND INLET NODE,ZONE OFFICE WHOLEBUILDING - MD OFFICE A END_A - STORY TOP PSZ-AC
   Supply Air Path Node,Outlet Node,2,ZONE OFFICE WHOLEBUILDING - MD OFFICE A END_A - STORY TOP PSZ-AC DIFFUSER INLET AIR NODE,ZONE OFFICE WHOLEBUILDING - MD OFFICE A END_A - STORY TOP PSZ-AC
 Supply Air Path,5,ZONE OFFICE WHOLEBUILDING - MD OFFICE A END_B - STORY GROUND PSZ-AC ZONE OFFICE WHOLEBUILDING - MD OFFICE A END_B - STORY GROUND PSZ-AC DEMAND INLET NODE SUPPLY PATH,ZONE OFFICE WHOLEBUILDING - MD OFFICE A END_B - STORY GROUND PSZ-AC
   #Components on Supply Air Path,1
   Supply Air Path Component,1,AIRLOOPHVAC:ZONESPLITTER,AIR LOOP HVAC ZONE SPLITTER 3,ZONE OFFICE WHOLEBUILDING - MD OFFICE A END_B - STORY GROUND PSZ-AC
     #Outlet Nodes on Supply Air Path Component,1
     Supply Air Path Component Nodes,1,AIRLOOPHVAC:ZONESPLITTER,AIR LOOP HVAC ZONE SPLITTER 3,ZONE OFFICE WHOLEBUILDING - MD OFFICE A END_B - STORY GROUND PSZ-AC DEMAND INLET NODE,ZONE OFFICE WHOLEBUILDING - MD OFFICE A END_B - STORY GROUND PSZ-AC DIFFUSER INLET AIR NODE,ZONE OFFICE WHOLEBUILDING - MD OFFICE A END_B - STORY GROUND PSZ-AC
! <#Nodes on Supply Air Path>,<Number of Nodes>
! <Supply Air Path Node>,<Node Type>,<Node Count>,<Node Name>,<AirLoopHVAC Name>
#Nodes on Supply Air Path,2
   Supply Air Path Node,Inlet Node,1,ZONE OFFICE WHOLEBUILDING - MD OFFICE A END_B - STORY GROUND PSZ-AC DEMAND INLET NODE,ZONE OFFICE WHOLEBUILDING - MD OFFICE A END_B - STORY GROUND PSZ-AC
   Supply Air Path Node,Outlet Node,2,ZONE OFFICE WHOLEBUILDING - MD OFFICE A END_B - STORY GROUND PSZ-AC DIFFUSER INLET AIR NODE,ZONE OFFICE WHOLEBUILDING - MD OFFICE A END_B - STORY GROUND PSZ-AC
 Supply Air Path,6,ZONE OFFICE WHOLEBUILDING - MD OFFICE A END_B - STORY TOP PSZ-AC ZONE OFFICE WHOLEBUILDING - MD OFFICE A END_B - STORY TOP PSZ-AC DEMAND INLET NODE SUPPLY PATH,ZONE OFFICE WHOLEBUILDING - MD OFFICE A END_B - STORY TOP PSZ-AC
   #Components on Supply Air Path,1
   Supply Air Path Component,1,AIRLOOPHVAC:ZONESPLITTER,AIR LOOP HVAC ZONE SPLITTER 12,ZONE OFFICE WHOLEBUILDING - MD OFFICE A END_B - STORY TOP PSZ-AC
     #Outlet Nodes on Supply Air Path Component,1
     Supply Air Path Component Nodes,1,AIRLOOPHVAC:ZONESPLITTER,AIR LOOP HVAC ZONE SPLITTER 12,ZONE OFFICE WHOLEBUILDING - MD OFFICE A END_B - STORY TOP PSZ-AC DEMAND INLET NODE,ZONE OFFICE WHOLEBUILDING - MD OFFICE A END_B - STORY TOP PSZ-AC DIFFUSER INLET AIR NODE,ZONE OFFICE WHOLEBUILDING - MD OFFICE A END_B - STORY TOP PSZ-AC
! <#Nodes on Supply Air Path>,<Number of Nodes>
! <Supply Air Path Node>,<Node Type>,<Node Count>,<Node Name>,<AirLoopHVAC Name>
#Nodes on Supply Air Path,2
   Supply Air Path Node,Inlet Node,1,ZONE OFFICE WHOLEBUILDING - MD OFFICE A END_B - STORY TOP PSZ-AC DEMAND INLET NODE,ZONE OFFICE WHOLEBUILDING - MD OFFICE A END_B - STORY TOP PSZ-AC
   Supply Air Path Node,Outlet Node,2,ZONE OFFICE WHOLEBUILDING - MD OFFICE A END_B - STORY TOP PSZ-AC DIFFUSER INLET AIR NODE,ZONE OFFICE WHOLEBUILDING - MD OFFICE A END_B - STORY TOP PSZ-AC
 Supply Air Path,7,ZONE OFFICE WHOLEBUILDING - MD OFFICE B  - STORY GROUND PSZ-AC ZONE OFFICE WHOLEBUILDING - MD OFFICE B  - STORY GROUND PSZ-AC DEMAND INLET NODE SUPPLY PATH,ZONE OFFICE WHOLEBUILDING - MD OFFICE B  - STORY GROUND PSZ-AC
   #Components on Supply Air Path,1
   Supply Air Path Component,1,AIRLOOPHVAC:ZONESPLITTER,AIR LOOP HVAC ZONE SPLITTER 4,ZONE OFFICE WHOLEBUILDING - MD OFFICE B  - STORY GROUND PSZ-AC
     #Outlet Nodes on Supply Air Path Component,1
     Supply Air Path Component Nodes,1,AIRLOOPHVAC:ZONESPLITTER,AIR LOOP HVAC ZONE SPLITTER 4,ZONE OFFICE WHOLEBUILDING - MD OFFICE B  - STORY GROUND PSZ-AC DEMAND INLET NODE,ZONE OFFICE WHOLEBUILDING - MD OFFICE B  - STORY GROUND PSZ-AC DIFFUSER INLET AIR NODE,ZONE OFFICE WHOLEBUILDING - MD OFFICE B  - STORY GROUND PSZ-AC
! <#Nodes on Supply Air Path>,<Number of Nodes>
! <Supply Air Path Node>,<Node Type>,<Node Count>,<Node Name>,<AirLoopHVAC Name>
#Nodes on Supply Air Path,2
   Supply Air Path Node,Inlet Node,1,ZONE OFFICE WHOLEBUILDING - MD OFFICE B  - STORY GROUND PSZ-AC DEMAND INLET NODE,ZONE OFFICE WHOLEBUILDING - MD OFFICE B  - STORY GROUND PSZ-AC
   Supply Air Path Node,Outlet Node,2,ZONE OFFICE WHOLEBUILDING - MD OFFICE B  - STORY GROUND PSZ-AC DIFFUSER INLET AIR NODE,ZONE OFFICE WHOLEBUILDING - MD OFFICE B  - STORY GROUND PSZ-AC
 Supply Air Path,8,ZONE OFFICE WHOLEBUILDING - MD OFFICE B  - STORY TOP PSZ-AC ZONE OFFICE WHOLEBUILDING - MD OFFICE B  - STORY TOP PSZ-AC DEMAND INLET NODE SUPPLY PATH,ZONE OFFICE WHOLEBUILDING - MD OFFICE B  - STORY TOP PSZ-AC
   #Components on Supply Air Path,1
   Supply Air Path Component,1,AIRLOOPHVAC:ZONESPLITTER,AIR LOOP HVAC ZONE SPLITTER 13,ZONE OFFICE WHOLEBUILDING - MD OFFICE B  - STORY TOP PSZ-AC
     #Outlet Nodes on Supply Air Path Component,1
     Supply Air Path Component Nodes,1,AIRLOOPHVAC:ZONESPLITTER,AIR LOOP HVAC ZONE SPLITTER 13,ZONE OFFICE WHOLEBUILDING - MD OFFICE B  - STORY TOP PSZ-AC DEMAND INLET NODE,ZONE OFFICE WHOLEBUILDING - MD OFFICE B  - STORY TOP PSZ-AC DIFFUSER INLET AIR NODE,ZONE OFFICE WHOLEBUILDING - MD OFFICE B  - STORY TOP PSZ-AC
! <#Nodes on Supply Air Path>,<Number of Nodes>
! <Supply Air Path Node>,<Node Type>,<Node Count>,<Node Name>,<AirLoopHVAC Name>
#Nodes on Supply Air Path,2
   Supply Air Path Node,Inlet Node,1,ZONE OFFICE WHOLEBUILDING - MD OFFICE B  - STORY TOP PSZ-AC DEMAND INLET NODE,ZONE OFFICE WHOLEBUILDING - MD OFFICE B  - STORY TOP PSZ-AC
   Supply Air Path Node,Outlet Node,2,ZONE OFFICE WHOLEBUILDING - MD OFFICE B  - STORY TOP PSZ-AC DIFFUSER INLET AIR NODE,ZONE OFFICE WHOLEBUILDING - MD OFFICE B  - STORY TOP PSZ-AC
 Supply Air Path,9,ZONE OFFICE WHOLEBUILDING - MD OFFICE B END_A - STORY GROUND PSZ-AC ZONE OFFICE WHOLEBUILDING - MD OFFICE B END_A - STORY GROUND PSZ-AC DEMAND INLET NODE SUPPLY PATH,ZONE OFFICE WHOLEBUILDING - MD OFFICE B END_A - STORY GROUND PSZ-AC
   #Components on Supply Air Path,1
   Supply Air Path Component,1,AIRLOOPHVAC:ZONESPLITTER,AIR LOOP HVAC ZONE SPLITTER 5,ZONE OFFICE WHOLEBUILDING - MD OFFICE B END_A - STORY GROUND PSZ-AC
     #Outlet Nodes on Supply Air Path Component,1
     Supply Air Path Component Nodes,1,AIRLOOPHVAC:ZONESPLITTER,AIR LOOP HVAC ZONE SPLITTER 5,ZONE OFFICE WHOLEBUILDING - MD OFFICE B END_A - STORY GROUND PSZ-AC DEMAND INLET NODE,ZONE OFFICE WHOLEBUILDING - MD OFFICE B END_A - STORY GROUND PSZ-AC DIFFUSER INLET AIR NODE,ZONE OFFICE WHOLEBUILDING - MD OFFICE B END_A - STORY GROUND PSZ-AC
! <#Nodes on Supply Air Path>,<Number of Nodes>
! <Supply Air Path Node>,<Node Type>,<Node Count>,<Node Name>,<AirLoopHVAC Name>
#Nodes on Supply Air Path,2
   Supply Air Path Node,Inlet Node,1,ZONE OFFICE WHOLEBUILDING - MD OFFICE B END_A - STORY GROUND PSZ-AC DEMAND INLET NODE,ZONE OFFICE WHOLEBUILDING - MD OFFICE B END_A - STORY GROUND PSZ-AC
   Supply Air Path Node,Outlet Node,2,ZONE OFFICE WHOLEBUILDING - MD OFFICE B END_A - STORY GROUND PSZ-AC DIFFUSER INLET AIR NODE,ZONE OFFICE WHOLEBUILDING - MD OFFICE B END_A - STORY GROUND PSZ-AC
 Supply Air Path,10,ZONE OFFICE WHOLEBUILDING - MD OFFICE B END_A - STORY TOP PSZ-AC ZONE OFFICE WHOLEBUILDING - MD OFFICE B END_A - STORY TOP PSZ-AC DEMAND INLET NODE SUPPLY PATH,ZONE OFFICE WHOLEBUILDING - MD OFFICE B END_A - STORY TOP PSZ-AC
   #Components on Supply Air Path,1
   Supply Air Path Component,1,AIRLOOPHVAC:ZONESPLITTER,AIR LOOP HVAC ZONE SPLITTER 14,ZONE OFFICE WHOLEBUILDING - MD OFFICE B END_A - STORY TOP PSZ-AC
     #Outlet Nodes on Supply Air Path Component,1
     Supply Air Path Component Nodes,1,AIRLOOPHVAC:ZONESPLITTER,AIR LOOP HVAC ZONE SPLITTER 14,ZONE OFFICE WHOLEBUILDING - MD OFFICE B END_A - STORY TOP PSZ-AC DEMAND INLET NODE,ZONE OFFICE WHOLEBUILDING - MD OFFICE B END_A - STORY TOP PSZ-AC DIFFUSER INLET AIR NODE,ZONE OFFICE WHOLEBUILDING - MD OFFICE B END_A - STORY TOP PSZ-AC
! <#Nodes on Supply Air Path>,<Number of Nodes>
! <Supply Air Path Node>,<Node Type>,<Node Count>,<Node Name>,<AirLoopHVAC Name>
#Nodes on Supply Air Path,2
   Supply Air Path Node,Inlet Node,1,ZONE OFFICE WHOLEBUILDING - MD OFFICE B END_A - STORY TOP PSZ-AC DEMAND INLET NODE,ZONE OFFICE WHOLEBUILDING - MD OFFICE B END_A - STORY TOP PSZ-AC
   Supply Air Path Node,Outlet Node,2,ZONE OFFICE WHOLEBUILDING - MD OFFICE B END_A - STORY TOP PSZ-AC DIFFUSER INLET AIR NODE,ZONE OFFICE WHOLEBUILDING - MD OFFICE B END_A - STORY TOP PSZ-AC
 Supply Air Path,11,ZONE OFFICE WHOLEBUILDING - MD OFFICE B END_B - STORY GROUND PSZ-AC ZONE OFFICE WHOLEBUILDING - MD OFFICE B END_B - STORY GROUND PSZ-AC DEMAND INLET NODE SUPPLY PATH,ZONE OFFICE WHOLEBUILDING - MD OFFICE B END_B - STORY GROUND PSZ-AC
   #Components on Supply Air Path,1
   Supply Air Path Component,1,AIRLOOPHVAC:ZONESPLITTER,AIR LOOP HVAC ZONE SPLITTER 6,ZONE OFFICE WHOLEBUILDING - MD OFFICE B END_B - STORY GROUND PSZ-AC
     #Outlet Nodes on Supply Air Path Component,1
     Supply Air Path Component Nodes,1,AIRLOOPHVAC:ZONESPLITTER,AIR LOOP HVAC ZONE SPLITTER 6,ZONE OFFICE WHOLEBUILDING - MD OFFICE B END_B - STORY GROUND PSZ-AC DEMAND INLET NODE,ZONE OFFICE WHOLEBUILDING - MD OFFICE B END_B - STORY GROUND PSZ-AC DIFFUSER INLET AIR NODE,ZONE OFFICE WHOLEBUILDING - MD OFFICE B END_B - STORY GROUND PSZ-AC
! <#Nodes on Supply Air Path>,<Number of Nodes>
! <Supply Air Path Node>,<Node Type>,<Node Count>,<Node Name>,<AirLoopHVAC Name>
#Nodes on Supply Air Path,2
   Supply Air Path Node,Inlet Node,1,ZONE OFFICE WHOLEBUILDING - MD OFFICE B END_B - STORY GROUND PSZ-AC DEMAND INLET NODE,ZONE OFFICE WHOLEBUILDING - MD OFFICE B END_B - STORY GROUND PSZ-AC
   Supply Air Path Node,Outlet Node,2,ZONE OFFICE WHOLEBUILDING - MD OFFICE B END_B - STORY GROUND PSZ-AC DIFFUSER INLET AIR NODE,ZONE OFFICE WHOLEBUILDING - MD OFFICE B END_B - STORY GROUND PSZ-AC
 Supply Air Path,12,ZONE OFFICE WHOLEBUILDING - MD OFFICE B END_B - STORY TOP PSZ-AC ZONE OFFICE WHOLEBUILDING - MD OFFICE B END_B - STORY TOP PSZ-AC DEMAND INLET NODE SUPPLY PATH,ZONE OFFICE WHOLEBUILDING - MD OFFICE B END_B - STORY TOP PSZ-AC
   #Components on Supply Air Path,1
   Supply Air Path Component,1,AIRLOOPHVAC:ZONESPLITTER,AIR LOOP HVAC ZONE SPLITTER 15,ZONE OFFICE WHOLEBUILDING - MD OFFICE B END_B - STORY TOP PSZ-AC
     #Outlet Nodes on Supply Air Path Component,1
     Supply Air Path Component Nodes,1,AIRLOOPHVAC:ZONESPLITTER,AIR LOOP HVAC ZONE SPLITTER 15,ZONE OFFICE WHOLEBUILDING - MD OFFICE B END_B - STORY TOP PSZ-AC DEMAND INLET NODE,ZONE OFFICE WHOLEBUILDING - MD OFFICE B END_B - STORY TOP PSZ-AC DIFFUSER INLET AIR NODE,ZONE OFFICE WHOLEBUILDING - MD OFFICE B END_B - STORY TOP PSZ-AC
! <#Nodes on Supply Air Path>,<Number of Nodes>
! <Supply Air Path Node>,<Node Type>,<Node Count>,<Node Name>,<AirLoopHVAC Name>
#Nodes on Supply Air Path,2
   Supply Air Path Node,Inlet Node,1,ZONE OFFICE WHOLEBUILDING - MD OFFICE B END_B - STORY TOP PSZ-AC DEMAND INLET NODE,ZONE OFFICE WHOLEBUILDING - MD OFFICE B END_B - STORY TOP PSZ-AC
   Supply Air Path Node,Outlet Node,2,ZONE OFFICE WHOLEBUILDING - MD OFFICE B END_B - STORY TOP PSZ-AC DIFFUSER INLET AIR NODE,ZONE OFFICE WHOLEBUILDING - MD OFFICE B END_B - STORY TOP PSZ-AC
 Supply Air Path,13,ZONE OFFICE WHOLEBUILDING - MD OFFICE C  - STORY GROUND PSZ-AC ZONE OFFICE WHOLEBUILDING - MD OFFICE C  - STORY GROUND PSZ-AC DEMAND INLET NODE SUPPLY PATH,ZONE OFFICE WHOLEBUILDING - MD OFFICE C  - STORY GROUND PSZ-AC
   #Components on Supply Air Path,1
   Supply Air Path Component,1,AIRLOOPHVAC:ZONESPLITTER,AIR LOOP HVAC ZONE SPLITTER 7,ZONE OFFICE WHOLEBUILDING - MD OFFICE C  - STORY GROUND PSZ-AC
     #Outlet Nodes on Supply Air Path Component,1
     Supply Air Path Component Nodes,1,AIRLOOPHVAC:ZONESPLITTER,AIR LOOP HVAC ZONE SPLITTER 7,ZONE OFFICE WHOLEBUILDING - MD OFFICE C  - STORY GROUND PSZ-AC DEMAND INLET NODE,ZONE OFFICE WHOLEBUILDING - MD OFFICE C  - STORY GROUND PSZ-AC DIFFUSER INLET AIR NODE,ZONE OFFICE WHOLEBUILDING - MD OFFICE C  - STORY GROUND PSZ-AC
! <#Nodes on Supply Air Path>,<Number of Nodes>
! <Supply Air Path Node>,<Node Type>,<Node Count>,<Node Name>,<AirLoopHVAC Name>
#Nodes on Supply Air Path,2
   Supply Air Path Node,Inlet Node,1,ZONE OFFICE WHOLEBUILDING - MD OFFICE C  - STORY GROUND PSZ-AC DEMAND INLET NODE,ZONE OFFICE WHOLEBUILDING - MD OFFICE C  - STORY GROUND PSZ-AC
   Supply Air Path Node,Outlet Node,2,ZONE OFFICE WHOLEBUILDING - MD OFFICE C  - STORY GROUND PSZ-AC DIFFUSER INLET AIR NODE,ZONE OFFICE WHOLEBUILDING - MD OFFICE C  - STORY GROUND PSZ-AC
 Supply Air Path,14,ZONE OFFICE WHOLEBUILDING - MD OFFICE C  - STORY TOP PSZ-AC ZONE OFFICE WHOLEBUILDING - MD OFFICE C  - STORY TOP PSZ-AC DEMAND INLET NODE SUPPLY PATH,ZONE OFFICE WHOLEBUILDING - MD OFFICE C  - STORY TOP PSZ-AC
   #Components on Supply Air Path,1
   Supply Air Path Component,1,AIRLOOPHVAC:ZONESPLITTER,AIR LOOP HVAC ZONE SPLITTER 16,ZONE OFFICE WHOLEBUILDING - MD OFFICE C  - STORY TOP PSZ-AC
     #Outlet Nodes on Supply Air Path Component,1
     Supply Air Path Component Nodes,1,AIRLOOPHVAC:ZONESPLITTER,AIR LOOP HVAC ZONE SPLITTER 16,ZONE OFFICE WHOLEBUILDING - MD OFFICE C  - STORY TOP PSZ-AC DEMAND INLET NODE,ZONE OFFICE WHOLEBUILDING - MD OFFICE C  - STORY TOP PSZ-AC DIFFUSER INLET AIR NODE,ZONE OFFICE WHOLEBUILDING - MD OFFICE C  - STORY TOP PSZ-AC
! <#Nodes on Supply Air Path>,<Number of Nodes>
! <Supply Air Path Node>,<Node Type>,<Node Count>,<Node Name>,<AirLoopHVAC Name>
#Nodes on Supply Air Path,2
   Supply Air Path Node,Inlet Node,1,ZONE OFFICE WHOLEBUILDING - MD OFFICE C  - STORY TOP PSZ-AC DEMAND INLET NODE,ZONE OFFICE WHOLEBUILDING - MD OFFICE C  - STORY TOP PSZ-AC
   Supply Air Path Node,Outlet Node,2,ZONE OFFICE WHOLEBUILDING - MD OFFICE C  - STORY TOP PSZ-AC DIFFUSER INLET AIR NODE,ZONE OFFICE WHOLEBUILDING - MD OFFICE C  - STORY TOP PSZ-AC
 Supply Air Path,15,ZONE OFFICE WHOLEBUILDING - MD OFFICE C END_A - STORY GROUND PSZ-AC ZONE OFFICE WHOLEBUILDING - MD OFFICE C END_A - STORY GROUND PSZ-AC DEMAND INLET NODE SUPPLY PATH,ZONE OFFICE WHOLEBUILDING - MD OFFICE C END_A - STORY GROUND PSZ-AC
   #Components on Supply Air Path,1
   Supply Air Path Component,1,AIRLOOPHVAC:ZONESPLITTER,AIR LOOP HVAC ZONE SPLITTER 8,ZONE OFFICE WHOLEBUILDING - MD OFFICE C END_A - STORY GROUND PSZ-AC
     #Outlet Nodes on Supply Air Path Component,1
     Supply Air Path Component Nodes,1,AIRLOOPHVAC:ZONESPLITTER,AIR LOOP HVAC ZONE SPLITTER 8,ZONE OFFICE WHOLEBUILDING - MD OFFICE C END_A - STORY GROUND PSZ-AC DEMAND INLET NODE,ZONE OFFICE WHOLEBUILDING - MD OFFICE C END_A - STORY GROUND PSZ-AC DIFFUSER INLET AIR NODE,ZONE OFFICE WHOLEBUILDING - MD OFFICE C END_A - STORY GROUND PSZ-AC
! <#Nodes on Supply Air Path>,<Number of Nodes>
! <Supply Air Path Node>,<Node Type>,<Node Count>,<Node Name>,<AirLoopHVAC Name>
#Nodes on Supply Air Path,2
   Supply Air Path Node,Inlet Node,1,ZONE OFFICE WHOLEBUILDING - MD OFFICE C END_A - STORY GROUND PSZ-AC DEMAND INLET NODE,ZONE OFFICE WHOLEBUILDING - MD OFFICE C END_A - STORY GROUND PSZ-AC
   Supply Air Path Node,Outlet Node,2,ZONE OFFICE WHOLEBUILDING - MD OFFICE C END_A - STORY GROUND PSZ-AC DIFFUSER INLET AIR NODE,ZONE OFFICE WHOLEBUILDING - MD OFFICE C END_A - STORY GROUND PSZ-AC
 Supply Air Path,16,ZONE OFFICE WHOLEBUILDING - MD OFFICE C END_A - STORY TOP PSZ-AC ZONE OFFICE WHOLEBUILDING - MD OFFICE C END_A - STORY TOP PSZ-AC DEMAND INLET NODE SUPPLY PATH,ZONE OFFICE WHOLEBUILDING - MD OFFICE C END_A - STORY TOP PSZ-AC
   #Components on Supply Air Path,1
   Supply Air Path Component,1,AIRLOOPHVAC:ZONESPLITTER,AIR LOOP HVAC ZONE SPLITTER 17,ZONE OFFICE WHOLEBUILDING - MD OFFICE C END_A - STORY TOP PSZ-AC
     #Outlet Nodes on Supply Air Path Component,1
     Supply Air Path Component Nodes,1,AIRLOOPHVAC:ZONESPLITTER,AIR LOOP HVAC ZONE SPLITTER 17,ZONE OFFICE WHOLEBUILDING - MD OFFICE C END_A - STORY TOP PSZ-AC DEMAND INLET NODE,ZONE OFFICE WHOLEBUILDING - MD OFFICE C END_A - STORY TOP PSZ-AC DIFFUSER INLET AIR NODE,ZONE OFFICE WHOLEBUILDING - MD OFFICE C END_A - STORY TOP PSZ-AC
! <#Nodes on Supply Air Path>,<Number of Nodes>
! <Supply Air Path Node>,<Node Type>,<Node Count>,<Node Name>,<AirLoopHVAC Name>
#Nodes on Supply Air Path,2
   Supply Air Path Node,Inlet Node,1,ZONE OFFICE WHOLEBUILDING - MD OFFICE C END_A - STORY TOP PSZ-AC DEMAND INLET NODE,ZONE OFFICE WHOLEBUILDING - MD OFFICE C END_A - STORY TOP PSZ-AC
   Supply Air Path Node,Outlet Node,2,ZONE OFFICE WHOLEBUILDING - MD OFFICE C END_A - STORY TOP PSZ-AC DIFFUSER INLET AIR NODE,ZONE OFFICE WHOLEBUILDING - MD OFFICE C END_A - STORY TOP PSZ-AC
 Supply Air Path,17,ZONE OFFICE WHOLEBUILDING - MD OFFICE C END_B - STORY GROUND PSZ-AC ZONE OFFICE WHOLEBUILDING - MD OFFICE C END_B - STORY GROUND PSZ-AC DEMAND INLET NODE SUPPLY PATH,ZONE OFFICE WHOLEBUILDING - MD OFFICE C END_B - STORY GROUND PSZ-AC
   #Components on Supply Air Path,1
   Supply Air Path Component,1,AIRLOOPHVAC:ZONESPLITTER,AIR LOOP HVAC ZONE SPLITTER 9,ZONE OFFICE WHOLEBUILDING - MD OFFICE C END_B - STORY GROUND PSZ-AC
     #Outlet Nodes on Supply Air Path Component,1
     Supply Air Path Component Nodes,1,AIRLOOPHVAC:ZONESPLITTER,AIR LOOP HVAC ZONE SPLITTER 9,ZONE OFFICE WHOLEBUILDING - MD OFFICE C END_B - STORY GROUND PSZ-AC DEMAND INLET NODE,ZONE OFFICE WHOLEBUILDING - MD OFFICE C END_B - STORY GROUND PSZ-AC DIFFUSER INLET AIR NODE,ZONE OFFICE WHOLEBUILDING - MD OFFICE C END_B - STORY GROUND PSZ-AC
! <#Nodes on Supply Air Path>,<Number of Nodes>
! <Supply Air Path Node>,<Node Type>,<Node Count>,<Node Name>,<AirLoopHVAC Name>
#Nodes on Supply Air Path,2
   Supply Air Path Node,Inlet Node,1,ZONE OFFICE WHOLEBUILDING - MD OFFICE C END_B - STORY GROUND PSZ-AC DEMAND INLET NODE,ZONE OFFICE WHOLEBUILDING - MD OFFICE C END_B - STORY GROUND PSZ-AC
   Supply Air Path Node,Outlet Node,2,ZONE OFFICE WHOLEBUILDING - MD OFFICE C END_B - STORY GROUND PSZ-AC DIFFUSER INLET AIR NODE,ZONE OFFICE WHOLEBUILDING - MD OFFICE C END_B - STORY GROUND PSZ-AC
 Supply Air Path,18,ZONE OFFICE WHOLEBUILDING - MD OFFICE C END_B - STORY TOP PSZ-AC ZONE OFFICE WHOLEBUILDING - MD OFFICE C END_B - STORY TOP PSZ-AC DEMAND INLET NODE SUPPLY PATH,ZONE OFFICE WHOLEBUILDING - MD OFFICE C END_B - STORY TOP PSZ-AC
   #Components on Supply Air Path,1
   Supply Air Path Component,1,AIRLOOPHVAC:ZONESPLITTER,AIR LOOP HVAC ZONE SPLITTER 18,ZONE OFFICE WHOLEBUILDING - MD OFFICE C END_B - STORY TOP PSZ-AC
     #Outlet Nodes on Supply Air Path Component,1
     Supply Air Path Component Nodes,1,AIRLOOPHVAC:ZONESPLITTER,AIR LOOP HVAC ZONE SPLITTER 18,ZONE OFFICE WHOLEBUILDING - MD OFFICE C END_B - STORY TOP PSZ-AC DEMAND INLET NODE,ZONE OFFICE WHOLEBUILDING - MD OFFICE C END_B - STORY TOP PSZ-AC DIFFUSER INLET AIR NODE,ZONE OFFICE WHOLEBUILDING - MD OFFICE C END_B - STORY TOP PSZ-AC
! <#Nodes on Supply Air Path>,<Number of Nodes>
! <Supply Air Path Node>,<Node Type>,<Node Count>,<Node Name>,<AirLoopHVAC Name>
#Nodes on Supply Air Path,2
   Supply Air Path Node,Inlet Node,1,ZONE OFFICE WHOLEBUILDING - MD OFFICE C END_B - STORY TOP PSZ-AC DEMAND INLET NODE,ZONE OFFICE WHOLEBUILDING - MD OFFICE C END_B - STORY TOP PSZ-AC
   Supply Air Path Node,Outlet Node,2,ZONE OFFICE WHOLEBUILDING - MD OFFICE C END_B - STORY TOP PSZ-AC DIFFUSER INLET AIR NODE,ZONE OFFICE WHOLEBUILDING - MD OFFICE C END_B - STORY TOP PSZ-AC
! ===============================================================
! <#Return Air Paths>,<Number of Return Air Paths>
 #Return Air Paths,18
! <Return Air Path>,<Return Air Path Count>,<Return Air Path Name>,<AirLoopHVAC Name>
! <#Components on Return Air Path>,<Number of Components>
! <Return Air Path Component>,<Component Count>,<Component Type>,<Component Name>,<AirLoopHVAC Name>
! <#Inlet Nodes on Return Air Path Component>,<Number of Nodes>
! <Return Air Path Component Nodes>,<Node Count>,<Component Type>,<Component Name>,<Inlet Node Name>,<Outlet Node Name>,<AirLoopHVAC Name>
 Return Air Path,1,ZONE OFFICE WHOLEBUILDING - MD OFFICE A  - STORY GROUND PSZ-AC RETURN PATH,ZONE OFFICE WHOLEBUILDING - MD OFFICE A  - STORY GROUND PSZ-AC
   #Components on Return Air Path,1
   Return Air Path Component,1,AIRLOOPHVAC:ZONEMIXER,AIR LOOP HVAC ZONE MIXER 1,ZONE OFFICE WHOLEBUILDING - MD OFFICE A  - STORY GROUND PSZ-AC
     #Inlet Nodes on Return Air Path Component,1
     Return Air Path Component Nodes,1,AIRLOOPHVAC:ZONEMIXER,AIR LOOP HVAC ZONE MIXER 1,ZONE OFFICE WHOLEBUILDING - MD OFFICE A  - STORY GROUND RETURN AIR NODE,ZONE OFFICE WHOLEBUILDING - MD OFFICE A  - STORY GROUND PSZ-AC DEMAND OUTLET NODE,ZONE OFFICE WHOLEBUILDING - MD OFFICE A  - STORY GROUND PSZ-AC
! <#Nodes on Return Air Path>,<Number of Nodes>
! <Return Air Path Node>,<Node Type>,<Node Count>,<Node Name>,<AirLoopHVAC Name>
   #Nodes on Return Air Path,2
   Return Air Path Node,Outlet Node,1,ZONE OFFICE WHOLEBUILDING - MD OFFICE A  - STORY GROUND PSZ-AC DEMAND OUTLET NODE,ZONE OFFICE WHOLEBUILDING - MD OFFICE A  - STORY GROUND PSZ-AC
   Return Air Path Node,Inlet Node,2,ZONE OFFICE WHOLEBUILDING - MD OFFICE A  - STORY GROUND RETURN AIR NODE,ZONE OFFICE WHOLEBUILDING - MD OFFICE A  - STORY GROUND PSZ-AC
 Return Air Path,2,ZONE OFFICE WHOLEBUILDING - MD OFFICE A  - STORY TOP PSZ-AC RETURN PATH,ZONE OFFICE WHOLEBUILDING - MD OFFICE A  - STORY TOP PSZ-AC
   #Components on Return Air Path,1
   Return Air Path Component,1,AIRLOOPHVAC:ZONEMIXER,AIR LOOP HVAC ZONE MIXER 10,ZONE OFFICE WHOLEBUILDING - MD OFFICE A  - STORY TOP PSZ-AC
     #Inlet Nodes on Return Air Path Component,1
     Return Air Path Component Nodes,1,AIRLOOPHVAC:ZONEMIXER,AIR LOOP HVAC ZONE MIXER 10,ZONE OFFICE WHOLEBUILDING - MD OFFICE A  - STORY TOP RETURN AIR NODE,ZONE OFFICE WHOLEBUILDING - MD OFFICE A  - STORY TOP PSZ-AC DEMAND OUTLET NODE,ZONE OFFICE WHOLEBUILDING - MD OFFICE A  - STORY TOP PSZ-AC
! <#Nodes on Return Air Path>,<Number of Nodes>
! <Return Air Path Node>,<Node Type>,<Node Count>,<Node Name>,<AirLoopHVAC Name>
   #Nodes on Return Air Path,2
   Return Air Path Node,Outlet Node,1,ZONE OFFICE WHOLEBUILDING - MD OFFICE A  - STORY TOP PSZ-AC DEMAND OUTLET NODE,ZONE OFFICE WHOLEBUILDING - MD OFFICE A  - STORY TOP PSZ-AC
   Return Air Path Node,Inlet Node,2,ZONE OFFICE WHOLEBUILDING - MD OFFICE A  - STORY TOP RETURN AIR NODE,ZONE OFFICE WHOLEBUILDING - MD OFFICE A  - STORY TOP PSZ-AC
 Return Air Path,3,ZONE OFFICE WHOLEBUILDING - MD OFFICE A END_A - STORY GROUND PSZ-AC RETURN PATH,ZONE OFFICE WHOLEBUILDING - MD OFFICE A END_A - STORY GROUND PSZ-AC
   #Components on Return Air Path,1
   Return Air Path Component,1,AIRLOOPHVAC:ZONEMIXER,AIR LOOP HVAC ZONE MIXER 2,ZONE OFFICE WHOLEBUILDING - MD OFFICE A END_A - STORY GROUND PSZ-AC
     #Inlet Nodes on Return Air Path Component,1
     Return Air Path Component Nodes,1,AIRLOOPHVAC:ZONEMIXER,AIR LOOP HVAC ZONE MIXER 2,ZONE OFFICE WHOLEBUILDING - MD OFFICE A END_A - STORY GROUND RETURN AIR NODE,ZONE OFFICE WHOLEBUILDING - MD OFFICE A END_A - STORY GROUND PSZ-AC DEMAND OUTLET NODE,ZONE OFFICE WHOLEBUILDING - MD OFFICE A END_A - STORY GROUND PSZ-AC
! <#Nodes on Return Air Path>,<Number of Nodes>
! <Return Air Path Node>,<Node Type>,<Node Count>,<Node Name>,<AirLoopHVAC Name>
   #Nodes on Return Air Path,2
   Return Air Path Node,Outlet Node,1,ZONE OFFICE WHOLEBUILDING - MD OFFICE A END_A - STORY GROUND PSZ-AC DEMAND OUTLET NODE,ZONE OFFICE WHOLEBUILDING - MD OFFICE A END_A - STORY GROUND PSZ-AC
   Return Air Path Node,Inlet Node,2,ZONE OFFICE WHOLEBUILDING - MD OFFICE A END_A - STORY GROUND RETURN AIR NODE,ZONE OFFICE WHOLEBUILDING - MD OFFICE A END_A - STORY GROUND PSZ-AC
 Return Air Path,4,ZONE OFFICE WHOLEBUILDING - MD OFFICE A END_A - STORY TOP PSZ-AC RETURN PATH,ZONE OFFICE WHOLEBUILDING - MD OFFICE A END_A - STORY TOP PSZ-AC
   #Components on Return Air Path,1
   Return Air Path Component,1,AIRLOOPHVAC:ZONEMIXER,AIR LOOP HVAC ZONE MIXER 11,ZONE OFFICE WHOLEBUILDING - MD OFFICE A END_A - STORY TOP PSZ-AC
     #Inlet Nodes on Return Air Path Component,1
     Return Air Path Component Nodes,1,AIRLOOPHVAC:ZONEMIXER,AIR LOOP HVAC ZONE MIXER 11,ZONE OFFICE WHOLEBUILDING - MD OFFICE A END_A - STORY TOP RETURN AIR NODE,ZONE OFFICE WHOLEBUILDING - MD OFFICE A END_A - STORY TOP PSZ-AC DEMAND OUTLET NODE,ZONE OFFICE WHOLEBUILDING - MD OFFICE A END_A - STORY TOP PSZ-AC
! <#Nodes on Return Air Path>,<Number of Nodes>
! <Return Air Path Node>,<Node Type>,<Node Count>,<Node Name>,<AirLoopHVAC Name>
   #Nodes on Return Air Path,2
   Return Air Path Node,Outlet Node,1,ZONE OFFICE WHOLEBUILDING - MD OFFICE A END_A - STORY TOP PSZ-AC DEMAND OUTLET NODE,ZONE OFFICE WHOLEBUILDING - MD OFFICE A END_A - STORY TOP PSZ-AC
   Return Air Path Node,Inlet Node,2,ZONE OFFICE WHOLEBUILDING - MD OFFICE A END_A - STORY TOP RETURN AIR NODE,ZONE OFFICE WHOLEBUILDING - MD OFFICE A END_A - STORY TOP PSZ-AC
 Return Air Path,5,ZONE OFFICE WHOLEBUILDING - MD OFFICE A END_B - STORY GROUND PSZ-AC RETURN PATH,ZONE OFFICE WHOLEBUILDING - MD OFFICE A END_B - STORY GROUND PSZ-AC
   #Components on Return Air Path,1
   Return Air Path Component,1,AIRLOOPHVAC:ZONEMIXER,AIR LOOP HVAC ZONE MIXER 3,ZONE OFFICE WHOLEBUILDING - MD OFFICE A END_B - STORY GROUND PSZ-AC
     #Inlet Nodes on Return Air Path Component,1
     Return Air Path Component Nodes,1,AIRLOOPHVAC:ZONEMIXER,AIR LOOP HVAC ZONE MIXER 3,ZONE OFFICE WHOLEBUILDING - MD OFFICE A END_B - STORY GROUND RETURN AIR NODE,ZONE OFFICE WHOLEBUILDING - MD OFFICE A END_B - STORY GROUND PSZ-AC DEMAND OUTLET NODE,ZONE OFFICE WHOLEBUILDING - MD OFFICE A END_B - STORY GROUND PSZ-AC
! <#Nodes on Return Air Path>,<Number of Nodes>
! <Return Air Path Node>,<Node Type>,<Node Count>,<Node Name>,<AirLoopHVAC Name>
   #Nodes on Return Air Path,2
   Return Air Path Node,Outlet Node,1,ZONE OFFICE WHOLEBUILDING - MD OFFICE A END_B - STORY GROUND PSZ-AC DEMAND OUTLET NODE,ZONE OFFICE WHOLEBUILDING - MD OFFICE A END_B - STORY GROUND PSZ-AC
   Return Air Path Node,Inlet Node,2,ZONE OFFICE WHOLEBUILDING - MD OFFICE A END_B - STORY GROUND RETURN AIR NODE,ZONE OFFICE WHOLEBUILDING - MD OFFICE A END_B - STORY GROUND PSZ-AC
 Return Air Path,6,ZONE OFFICE WHOLEBUILDING - MD OFFICE A END_B - STORY TOP PSZ-AC RETURN PATH,ZONE OFFICE WHOLEBUILDING - MD OFFICE A END_B - STORY TOP PSZ-AC
   #Components on Return Air Path,1
   Return Air Path Component,1,AIRLOOPHVAC:ZONEMIXER,AIR LOOP HVAC ZONE MIXER 12,ZONE OFFICE WHOLEBUILDING - MD OFFICE A END_B - STORY TOP PSZ-AC
     #Inlet Nodes on Return Air Path Component,1
     Return Air Path Component Nodes,1,AIRLOOPHVAC:ZONEMIXER,AIR LOOP HVAC ZONE MIXER 12,ZONE OFFICE WHOLEBUILDING - MD OFFICE A END_B - STORY TOP RETURN AIR NODE,ZONE OFFICE WHOLEBUILDING - MD OFFICE A END_B - STORY TOP PSZ-AC DEMAND OUTLET NODE,ZONE OFFICE WHOLEBUILDING - MD OFFICE A END_B - STORY TOP PSZ-AC
! <#Nodes on Return Air Path>,<Number of Nodes>
! <Return Air Path Node>,<Node Type>,<Node Count>,<Node Name>,<AirLoopHVAC Name>
   #Nodes on Return Air Path,2
   Return Air Path Node,Outlet Node,1,ZONE OFFICE WHOLEBUILDING - MD OFFICE A END_B - STORY TOP PSZ-AC DEMAND OUTLET NODE,ZONE OFFICE WHOLEBUILDING - MD OFFICE A END_B - STORY TOP PSZ-AC
   Return Air Path Node,Inlet Node,2,ZONE OFFICE WHOLEBUILDING - MD OFFICE A END_B - STORY TOP RETURN AIR NODE,ZONE OFFICE WHOLEBUILDING - MD OFFICE A END_B - STORY TOP PSZ-AC
 Return Air Path,7,ZONE OFFICE WHOLEBUILDING - MD OFFICE B  - STORY GROUND PSZ-AC RETURN PATH,ZONE OFFICE WHOLEBUILDING - MD OFFICE B  - STORY GROUND PSZ-AC
   #Components on Return Air Path,1
   Return Air Path Component,1,AIRLOOPHVAC:ZONEMIXER,AIR LOOP HVAC ZONE MIXER 4,ZONE OFFICE WHOLEBUILDING - MD OFFICE B  - STORY GROUND PSZ-AC
     #Inlet Nodes on Return Air Path Component,1
     Return Air Path Component Nodes,1,AIRLOOPHVAC:ZONEMIXER,AIR LOOP HVAC ZONE MIXER 4,ZONE OFFICE WHOLEBUILDING - MD OFFICE B  - STORY GROUND RETURN AIR NODE,ZONE OFFICE WHOLEBUILDING - MD OFFICE B  - STORY GROUND PSZ-AC DEMAND OUTLET NODE,ZONE OFFICE WHOLEBUILDING - MD OFFICE B  - STORY GROUND PSZ-AC
! <#Nodes on Return Air Path>,<Number of Nodes>
! <Return Air Path Node>,<Node Type>,<Node Count>,<Node Name>,<AirLoopHVAC Name>
   #Nodes on Return Air Path,2
   Return Air Path Node,Outlet Node,1,ZONE OFFICE WHOLEBUILDING - MD OFFICE B  - STORY GROUND PSZ-AC DEMAND OUTLET NODE,ZONE OFFICE WHOLEBUILDING - MD OFFICE B  - STORY GROUND PSZ-AC
   Return Air Path Node,Inlet Node,2,ZONE OFFICE WHOLEBUILDING - MD OFFICE B  - STORY GROUND RETURN AIR NODE,ZONE OFFICE WHOLEBUILDING - MD OFFICE B  - STORY GROUND PSZ-AC
 Return Air Path,8,ZONE OFFICE WHOLEBUILDING - MD OFFICE B  - STORY TOP PSZ-AC RETURN PATH,ZONE OFFICE WHOLEBUILDING - MD OFFICE B  - STORY TOP PSZ-AC
   #Components on Return Air Path,1
   Return Air Path Component,1,AIRLOOPHVAC:ZONEMIXER,AIR LOOP HVAC ZONE MIXER 13,ZONE OFFICE WHOLEBUILDING - MD OFFICE B  - STORY TOP PSZ-AC
     #Inlet Nodes on Return Air Path Component,1
     Return Air Path Component Nodes,1,AIRLOOPHVAC:ZONEMIXER,AIR LOOP HVAC ZONE MIXER 13,ZONE OFFICE WHOLEBUILDING - MD OFFICE B  - STORY TOP RETURN AIR NODE,ZONE OFFICE WHOLEBUILDING - MD OFFICE B  - STORY TOP PSZ-AC DEMAND OUTLET NODE,ZONE OFFICE WHOLEBUILDING - MD OFFICE B  - STORY TOP PSZ-AC
! <#Nodes on Return Air Path>,<Number of Nodes>
! <Return Air Path Node>,<Node Type>,<Node Count>,<Node Name>,<AirLoopHVAC Name>
   #Nodes on Return Air Path,2
   Return Air Path Node,Outlet Node,1,ZONE OFFICE WHOLEBUILDING - MD OFFICE B  - STORY TOP PSZ-AC DEMAND OUTLET NODE,ZONE OFFICE WHOLEBUILDING - MD OFFICE B  - STORY TOP PSZ-AC
   Return Air Path Node,Inlet Node,2,ZONE OFFICE WHOLEBUILDING - MD OFFICE B  - STORY TOP RETURN AIR NODE,ZONE OFFICE WHOLEBUILDING - MD OFFICE B  - STORY TOP PSZ-AC
 Return Air Path,9,ZONE OFFICE WHOLEBUILDING - MD OFFICE B END_A - STORY GROUND PSZ-AC RETURN PATH,ZONE OFFICE WHOLEBUILDING - MD OFFICE B END_A - STORY GROUND PSZ-AC
   #Components on Return Air Path,1
   Return Air Path Component,1,AIRLOOPHVAC:ZONEMIXER,AIR LOOP HVAC ZONE MIXER 5,ZONE OFFICE WHOLEBUILDING - MD OFFICE B END_A - STORY GROUND PSZ-AC
     #Inlet Nodes on Return Air Path Component,1
     Return Air Path Component Nodes,1,AIRLOOPHVAC:ZONEMIXER,AIR LOOP HVAC ZONE MIXER 5,ZONE OFFICE WHOLEBUILDING - MD OFFICE B END_A - STORY GROUND RETURN AIR NODE,ZONE OFFICE WHOLEBUILDING - MD OFFICE B END_A - STORY GROUND PSZ-AC DEMAND OUTLET NODE,ZONE OFFICE WHOLEBUILDING - MD OFFICE B END_A - STORY GROUND PSZ-AC
! <#Nodes on Return Air Path>,<Number of Nodes>
! <Return Air Path Node>,<Node Type>,<Node Count>,<Node Name>,<AirLoopHVAC Name>
   #Nodes on Return Air Path,2
   Return Air Path Node,Outlet Node,1,ZONE OFFICE WHOLEBUILDING - MD OFFICE B END_A - STORY GROUND PSZ-AC DEMAND OUTLET NODE,ZONE OFFICE WHOLEBUILDING - MD OFFICE B END_A - STORY GROUND PSZ-AC
   Return Air Path Node,Inlet Node,2,ZONE OFFICE WHOLEBUILDING - MD OFFICE B END_A - STORY GROUND RETURN AIR NODE,ZONE OFFICE WHOLEBUILDING - MD OFFICE B END_A - STORY GROUND PSZ-AC
 Return Air Path,10,ZONE OFFICE WHOLEBUILDING - MD OFFICE B END_A - STORY TOP PSZ-AC RETURN PATH,ZONE OFFICE WHOLEBUILDING - MD OFFICE B END_A - STORY TOP PSZ-AC
   #Components on Return Air Path,1
   Return Air Path Component,1,AIRLOOPHVAC:ZONEMIXER,AIR LOOP HVAC ZONE MIXER 14,ZONE OFFICE WHOLEBUILDING - MD OFFICE B END_A - STORY TOP PSZ-AC
     #Inlet Nodes on Return Air Path Component,1
     Return Air Path Component Nodes,1,AIRLOOPHVAC:ZONEMIXER,AIR LOOP HVAC ZONE MIXER 14,ZONE OFFICE WHOLEBUILDING - MD OFFICE B END_A - STORY TOP RETURN AIR NODE,ZONE OFFICE WHOLEBUILDING - MD OFFICE B END_A - STORY TOP PSZ-AC DEMAND OUTLET NODE,ZONE OFFICE WHOLEBUILDING - MD OFFICE B END_A - STORY TOP PSZ-AC
! <#Nodes on Return Air Path>,<Number of Nodes>
! <Return Air Path Node>,<Node Type>,<Node Count>,<Node Name>,<AirLoopHVAC Name>
   #Nodes on Return Air Path,2
   Return Air Path Node,Outlet Node,1,ZONE OFFICE WHOLEBUILDING - MD OFFICE B END_A - STORY TOP PSZ-AC DEMAND OUTLET NODE,ZONE OFFICE WHOLEBUILDING - MD OFFICE B END_A - STORY TOP PSZ-AC
   Return Air Path Node,Inlet Node,2,ZONE OFFICE WHOLEBUILDING - MD OFFICE B END_A - STORY TOP RETURN AIR NODE,ZONE OFFICE WHOLEBUILDING - MD OFFICE B END_A - STORY TOP PSZ-AC
[...]
 Non-Parent Node Connection,ZONE OFFICE WHOLEBUILDING - MD OFFICE C  - STORY GROUND PSZ-AC UNITARY AC COOLING COIL - HEATING COIL NODE,COIL:COOLING:DX:SINGLESPEED,ZONE OFFICE WHOLEBUILDING - MD OFFICE C  - STORY GROUND PSZ-AC 1SPD DX AC CLG COIL 12KBTU/HR 14.0SEER,Outlet,1
 Non-Parent Node Connection,ZONE OFFICE WHOLEBUILDING - MD OFFICE C  - STORY TOP PSZ-AC MIXED AIR NODE,COIL:COOLING:DX:SINGLESPEED,ZONE OFFICE WHOLEBUILDING - MD OFFICE C  - STORY TOP PSZ-AC 1SPD DX AC CLG COIL 12KBTU/HR 14.0SEER,Inlet,1
 Non-Parent Node Connection,ZONE OFFICE WHOLEBUILDING - MD OFFICE C  - STORY TOP PSZ-AC UNITARY AC COOLING COIL - HEATING COIL NODE,COIL:COOLING:DX:SINGLESPEED,ZONE OFFICE WHOLEBUILDING - MD OFFICE C  - STORY TOP PSZ-AC 1SPD DX AC CLG COIL 12KBTU/HR 14.0SEER,Outlet,1
 Non-Parent Node Connection,ZONE OFFICE WHOLEBUILDING - MD OFFICE C END_A - STORY GROUND PSZ-AC MIXED AIR NODE,COIL:COOLING:DX:SINGLESPEED,ZONE OFFICE WHOLEBUILDING - MD OFFICE C END_A - STORY GROUND PSZ-AC 1SPD DX AC CLG COIL 8KBTU/HR 14.0SEER,Inlet,1
 Non-Parent Node Connection,ZONE OFFICE WHOLEBUILDING - MD OFFICE C END_A - STORY GROUND PSZ-AC UNITARY AC COOLING COIL - HEATING COIL NODE,COIL:COOLING:DX:SINGLESPEED,ZONE OFFICE WHOLEBUILDING - MD OFFICE C END_A - STORY GROUND PSZ-AC 1SPD DX AC CLG COIL 8KBTU/HR 14.0SEER,Outlet,1
 Non-Parent Node Connection,ZONE OFFICE WHOLEBUILDING - MD OFFICE C END_A - STORY TOP PSZ-AC MIXED AIR NODE,COIL:COOLING:DX:SINGLESPEED,ZONE OFFICE WHOLEBUILDING - MD OFFICE C END_A - STORY TOP PSZ-AC 1SPD DX AC CLG COIL 9KBTU/HR 14.0SEER,Inlet,1
 Non-Parent Node Connection,ZONE OFFICE WHOLEBUILDING - MD OFFICE C END_A - STORY TOP PSZ-AC UNITARY AC COOLING COIL - HEATING COIL NODE,COIL:COOLING:DX:SINGLESPEED,ZONE OFFICE WHOLEBUILDING - MD OFFICE C END_A - STORY TOP PSZ-AC 1SPD DX AC CLG COIL 9KBTU/HR 14.0SEER,Outlet,1
 Non-Parent Node Connection,ZONE OFFICE WHOLEBUILDING - MD OFFICE C END_B - STORY GROUND PSZ-AC MIXED AIR NODE,COIL:COOLING:DX:SINGLESPEED,ZONE OFFICE WHOLEBUILDING - MD OFFICE C END_B - STORY GROUND PSZ-AC 1SPD DX AC CLG COIL 7KBTU/HR 14.0SEER,Inlet,1
 Non-Parent Node Connection,ZONE OFFICE WHOLEBUILDING - MD OFFICE C END_B - STORY GROUND PSZ-AC UNITARY AC COOLING COIL - HEATING COIL NODE,COIL:COOLING:DX:SINGLESPEED,ZONE OFFICE WHOLEBUILDING - MD OFFICE C END_B - STORY GROUND PSZ-AC 1SPD DX AC CLG COIL 7KBTU/HR 14.0SEER,Outlet,1
 Non-Parent Node Connection,ZONE OFFICE WHOLEBUILDING - MD OFFICE C END_B - STORY TOP PSZ-AC MIXED AIR NODE,COIL:COOLING:DX:SINGLESPEED,ZONE OFFICE WHOLEBUILDING - MD OFFICE C END_B - STORY TOP PSZ-AC 1SPD DX AC CLG COIL 9KBTU/HR 14.0SEER,Inlet,1
 Non-Parent Node Connection,ZONE OFFICE WHOLEBUILDING - MD OFFICE C END_B - STORY TOP PSZ-AC UNITARY AC COOLING COIL - HEATING COIL NODE,COIL:COOLING:DX:SINGLESPEED,ZONE OFFICE WHOLEBUILDING - MD OFFICE C END_B - STORY TOP PSZ-AC 1SPD DX AC CLG COIL 9KBTU/HR 14.0SEER,Outlet,1
 Non-Parent Node Connection,ZONE OFFICE WHOLEBUILDING - MD OFFICE A  - STORY GROUND PSZ-AC MIXED AIR NODE,CONTROLLER:OUTDOORAIR,ZONE OFFICE WHOLEBUILDING - MD OFFICE A  - STORY GROUND PSZ-AC OA SYSTEM CONTROLLER,Sensor,1
 Non-Parent Node Connection,ZONE OFFICE WHOLEBUILDING - MD OFFICE A  - STORY GROUND PSZ-AC OUTDOOR AIR NODE,CONTROLLER:OUTDOORAIR,ZONE OFFICE WHOLEBUILDING - MD OFFICE A  - STORY GROUND PSZ-AC OA SYSTEM CONTROLLER,Actuator,1
 Non-Parent Node Connection,ZONE OFFICE WHOLEBUILDING - MD OFFICE A  - STORY GROUND PSZ-AC RELIEF AIR NODE,CONTROLLER:OUTDOORAIR,ZONE OFFICE WHOLEBUILDING - MD OFFICE A  - STORY GROUND PSZ-AC OA SYSTEM CONTROLLER,Actuator,1
 Non-Parent Node Connection,ZONE OFFICE WHOLEBUILDING - MD OFFICE A  - STORY GROUND PSZ-AC SUPPLY INLET NODE,CONTROLLER:OUTDOORAIR,ZONE OFFICE WHOLEBUILDING - MD OFFICE A  - STORY GROUND PSZ-AC OA SYSTEM CONTROLLER,Sensor,1
 Non-Parent Node Connection,ZONE OFFICE WHOLEBUILDING - MD OFFICE A  - STORY TOP PSZ-AC MIXED AIR NODE,CONTROLLER:OUTDOORAIR,ZONE OFFICE WHOLEBUILDING - MD OFFICE A  - STORY TOP PSZ-AC OA SYSTEM CONTROLLER,Sensor,1
 Non-Parent Node Connection,ZONE OFFICE WHOLEBUILDING - MD OFFICE A  - STORY TOP PSZ-AC OUTDOOR AIR NODE,CONTROLLER:OUTDOORAIR,ZONE OFFICE WHOLEBUILDING - MD OFFICE A  - STORY TOP PSZ-AC OA SYSTEM CONTROLLER,Actuator,1
 Non-Parent Node Connection,ZONE OFFICE WHOLEBUILDING - MD OFFICE A  - STORY TOP PSZ-AC RELIEF AIR NODE,CONTROLLER:OUTDOORAIR,ZONE OFFICE WHOLEBUILDING - MD OFFICE A  - STORY TOP PSZ-AC OA SYSTEM CONTROLLER,Actuator,1
 Non-Parent Node Connection,ZONE OFFICE WHOLEBUILDING - MD OFFICE A  - STORY TOP PSZ-AC SUPPLY INLET NODE,CONTROLLER:OUTDOORAIR,ZONE OFFICE WHOLEBUILDING - MD OFFICE A  - STORY TOP PSZ-AC OA SYSTEM CONTROLLER,Sensor,1
 Non-Parent Node Connection,ZONE OFFICE WHOLEBUILDING - MD OFFICE A END_A - STORY GROUND PSZ-AC MIXED AIR NODE,CONTROLLER:OUTDOORAIR,ZONE OFFICE WHOLEBUILDING - MD OFFICE A END_A - STORY GROUND PSZ-AC OA SYSTEM CONTROLLER,Sensor,1
 Non-Parent Node Connection,ZONE OFFICE WHOLEBUILDING - MD OFFICE A END_A - STORY GROUND PSZ-AC OUTDOOR AIR NODE,CONTROLLER:OUTDOORAIR,ZONE OFFICE WHOLEBUILDING - MD OFFICE A END_A - STORY GROUND PSZ-AC OA SYSTEM CONTROLLER,Actuator,1
 Non-Parent Node Connection,ZONE OFFICE WHOLEBUILDING - MD OFFICE A END_A - STORY GROUND PSZ-AC RELIEF AIR NODE,CONTROLLER:OUTDOORAIR,ZONE OFFICE WHOLEBUILDING - MD OFFICE A END_A - STORY GROUND PSZ-AC OA SYSTEM CONTROLLER,Actuator,1
 Non-Parent Node Connection,ZONE OFFICE WHOLEBUILDING - MD OFFICE A END_A - STORY GROUND PSZ-AC SUPPLY INLET NODE,CONTROLLER:OUTDOORAIR,ZONE OFFICE WHOLEBUILDING - MD OFFICE A END_A - STORY GROUND PSZ-AC OA SYSTEM CONTROLLER,Sensor,1
 Non-Parent Node Connection,ZONE OFFICE WHOLEBUILDING - MD OFFICE A END_A - STORY TOP PSZ-AC MIXED AIR NODE,CONTROLLER:OUTDOORAIR,ZONE OFFICE WHOLEBUILDING - MD OFFICE A END_A - STORY TOP PSZ-AC OA SYSTEM CONTROLLER,Sensor,1
 Non-Parent Node Connection,ZONE OFFICE WHOLEBUILDING - MD OFFICE A END_A - STORY TOP PSZ-AC OUTDOOR AIR NODE,CONTROLLER:OUTDOORAIR,ZONE OFFICE WHOLEBUILDING - MD OFFICE A END_A - STORY TOP PSZ-AC OA SYSTEM CONTROLLER,Actuator,1
 Non-Parent Node Connection,ZONE OFFICE WHOLEBUILDING - MD OFFICE A END_A - STORY TOP PSZ-AC RELIEF AIR NODE,CONTROLLER:OUTDOORAIR,ZONE OFFICE WHOLEBUILDING - MD OFFICE A END_A - STORY TOP PSZ-AC OA SYSTEM CONTROLLER,Actuator,1
 Non-Parent Node Connection,ZONE OFFICE WHOLEBUILDING - MD OFFICE A END_A - STORY TOP PSZ-AC SUPPLY INLET NODE,CONTROLLER:OUTDOORAIR,ZONE OFFICE WHOLEBUILDING - MD OFFICE A END_A - STORY TOP PSZ-AC OA SYSTEM CONTROLLER,Sensor,1
 Non-Parent Node Connection,ZONE OFFICE WHOLEBUILDING - MD OFFICE A END_B - STORY GROUND PSZ-AC MIXED AIR NODE,CONTROLLER:OUTDOORAIR,ZONE OFFICE WHOLEBUILDING - MD OFFICE A END_B - STORY GROUND PSZ-AC OA SYSTEM CONTROLLER,Sensor,1
 Non-Parent Node Connection,ZONE OFFICE WHOLEBUILDING - MD OFFICE A END_B - STORY GROUND PSZ-AC OUTDOOR AIR NODE,CONTROLLER:OUTDOORAIR,ZONE OFFICE WHOLEBUILDING - MD OFFICE A END_B - STORY GROUND PSZ-AC OA SYSTEM CONTROLLER,Actuator,1
 Non-Parent Node Connection,ZONE OFFICE WHOLEBUILDING - MD OFFICE A END_B - STORY GROUND PSZ-AC RELIEF AIR NODE,CONTROLLER:OUTDOORAIR,ZONE OFFICE WHOLEBUILDING - MD OFFICE A END_B - STORY GROUND PSZ-AC OA SYSTEM CONTROLLER,Actuator,1
 Non-Parent Node Connection,ZONE OFFICE WHOLEBUILDING - MD OFFICE A END_B - STORY GROUND PSZ-AC SUPPLY INLET NODE,CONTROLLER:OUTDOORAIR,ZONE OFFICE WHOLEBUILDING - MD OFFICE A END_B - STORY GROUND PSZ-AC OA SYSTEM CONTROLLER,Sensor,1
 Non-Parent Node Connection,ZONE OFFICE WHOLEBUILDING - MD OFFICE A END_B - STORY TOP PSZ-AC MIXED AIR NODE,CONTROLLER:OUTDOORAIR,ZONE OFFICE WHOLEBUILDING - MD OFFICE A END_B - STORY TOP PSZ-AC OA SYSTEM CONTROLLER,Sensor,1
 Non-Parent Node Connection,ZONE OFFICE WHOLEBUILDING - MD OFFICE A END_B - STORY TOP PSZ-AC OUTDOOR AIR NODE,CONTROLLER:OUTDOORAIR,ZONE OFFICE WHOLEBUILDING - MD OFFICE A END_B - STORY TOP PSZ-AC OA SYSTEM CONTROLLER,Actuator,1
 Non-Parent Node Connection,ZONE OFFICE WHOLEBUILDING - MD OFFICE A END_B - STORY TOP PSZ-AC RELIEF AIR NODE,CONTROLLER:OUTDOORAIR,ZONE OFFICE WHOLEBUILDING - MD OFFICE A END_B - STORY TOP PSZ-AC OA SYSTEM CONTROLLER,Actuator,1
 Non-Parent Node Connection,ZONE OFFICE WHOLEBUILDING - MD OFFICE A END_B - STORY TOP PSZ-AC SUPPLY INLET NODE,CONTROLLER:OUTDOORAIR,ZONE OFFICE WHOLEBUILDING - MD OFFICE A END_B - STORY TOP PSZ-AC OA SYSTEM CONTROLLER,Sensor,1
 Non-Parent Node Connection,ZONE OFFICE WHOLEBUILDING - MD OFFICE B  - STORY GROUND PSZ-AC MIXED AIR NODE,CONTROLLER:OUTDOORAIR,ZONE OFFICE WHOLEBUILDING - MD OFFICE B  - STORY GROUND PSZ-AC OA SYSTEM CONTROLLER,Sensor,1
 Non-Parent Node Connection,ZONE OFFICE WHOLEBUILDING - MD OFFICE B  - STORY GROUND PSZ-AC OUTDOOR AIR NODE,CONTROLLER:OUTDOORAIR,ZONE OFFICE WHOLEBUILDING - MD OFFICE B  - STORY GROUND PSZ-AC OA SYSTEM CONTROLLER,Actuator,1
 Non-Parent Node Connection,ZONE OFFICE WHOLEBUILDING - MD OFFICE B  - STORY GROUND PSZ-AC RELIEF AIR NODE,CONTROLLER:OUTDOORAIR,ZONE OFFICE WHOLEBUILDING - MD OFFICE B  - STORY GROUND PSZ-AC OA SYSTEM CONTROLLER,Actuator,1
 Non-Parent Node Connection,ZONE OFFICE WHOLEBUILDING - MD OFFICE B  - STORY GROUND PSZ-AC SUPPLY INLET NODE,CONTROLLER:OUTDOORAIR,ZONE OFFICE WHOLEBUILDING - MD OFFICE B  - STORY GROUND PSZ-AC OA SYSTEM CONTROLLER,Sensor,1
 Non-Parent Node Connection,ZONE OFFICE WHOLEBUILDING - MD OFFICE B  - STORY TOP PSZ-AC MIXED AIR NODE,CONTROLLER:OUTDOORAIR,ZONE OFFICE WHOLEBUILDING - MD OFFICE B  - STORY TOP PSZ-AC OA SYSTEM CONTROLLER,Sensor,1
 Non-Parent Node Connection,ZONE OFFICE WHOLEBUILDING - MD OFFICE B  - STORY TOP PSZ-AC OUTDOOR AIR NODE,CONTROLLER:OUTDOORAIR,ZONE OFFICE WHOLEBUILDING - MD OFFICE B  - STORY TOP PSZ-AC OA SYSTEM CONTROLLER,Actuator,1
 Non-Parent Node Connection,ZONE OFFICE WHOLEBUILDING - MD OFFICE B  - STORY TOP PSZ-AC RELIEF AIR NODE,CONTROLLER:OUTDOORAIR,ZONE OFFICE WHOLEBUILDING - MD OFFICE B  - STORY TOP PSZ-AC OA SYSTEM CONTROLLER,Actuator,1
 Non-Parent Node Connection,ZONE OFFICE WHOLEBUILDING - MD OFFICE B  - STORY TOP PSZ-AC SUPPLY INLET NODE,CONTROLLER:OUTDOORAIR,ZONE OFFICE WHOLEBUILDING - MD OFFICE B  - STORY TOP PSZ-AC OA SYSTEM CONTROLLER,Sensor,1
 Non-Parent Node Connection,ZONE OFFICE WHOLEBUILDING - MD OFFICE B END_A - STORY GROUND PSZ-AC MIXED AIR NODE,CONTROLLER:OUTDOORAIR,ZONE OFFICE WHOLEBUILDING - MD OFFICE B END_A - STORY GROUND PSZ-AC OA SYSTEM CONTROLLER,Sensor,1
 Non-Parent Node Connection,ZONE OFFICE WHOLEBUILDING - MD OFFICE B END_A - STORY GROUND PSZ-AC OUTDOOR AIR NODE,CONTROLLER:OUTDOORAIR,ZONE OFFICE WHOLEBUILDING - MD OFFICE B END_A - STORY GROUND PSZ-AC OA SYSTEM CONTROLLER,Actuator,1
 Non-Parent Node Connection,ZONE OFFICE WHOLEBUILDING - MD OFFICE B END_A - STORY GROUND PSZ-AC RELIEF AIR NODE,CONTROLLER:OUTDOORAIR,ZONE OFFICE WHOLEBUILDING - MD OFFICE B END_A - STORY GROUND PSZ-AC OA SYSTEM CONTROLLER,Actuator,1
 Non-Parent Node Connection,ZONE OFFICE WHOLEBUILDING - MD OFFICE B END_A - STORY GROUND PSZ-AC SUPPLY INLET NODE,CONTROLLER:OUTDOORAIR,ZONE OFFICE WHOLEBUILDING - MD OFFICE B END_A - STORY GROUND PSZ-AC OA SYSTEM CONTROLLER,Sensor,1
 Non-Parent Node Connection,ZONE OFFICE WHOLEBUILDING - MD OFFICE B END_A - STORY TOP PSZ-AC MIXED AIR NODE,CONTROLLER:OUTDOORAIR,ZONE OFFICE WHOLEBUILDING - MD OFFICE B END_A - STORY TOP PSZ-AC OA SYSTEM CONTROLLER,Sensor,1
 Non-Parent Node Connection,ZONE OFFICE WHOLEBUILDING - MD OFFICE B END_A - STORY TOP PSZ-AC OUTDOOR AIR NODE,CONTROLLER:OUTDOORAIR,ZONE OFFICE WHOLEBUILDING - MD OFFICE B END_A - STORY TOP PSZ-AC OA SYSTEM CONTROLLER,Actuator,1
 Non-Parent Node Connection,ZONE OFFICE WHOLEBUILDING - MD OFFICE B END_A - STORY TOP PSZ-AC RELIEF AIR NODE,CONTROLLER:OUTDOORAIR,ZONE OFFICE WHOLEBUILDING - MD OFFICE B END_A - STORY TOP PSZ-AC OA SYSTEM CONTROLLER,Actuator,1
 Non-Parent Node Connection,ZONE OFFICE WHOLEBUILDING - MD OFFICE B END_A - STORY TOP PSZ-AC SUPPLY INLET NODE,CONTROLLER:OUTDOORAIR,ZONE OFFICE WHOLEBUILDING - MD OFFICE B END_A - STORY TOP PSZ-AC OA SYSTEM CONTROLLER,Sensor,1
 Non-Parent Node Connection,ZONE OFFICE WHOLEBUILDING - MD OFFICE B END_B - STORY GROUND PSZ-AC MIXED AIR NODE,CONTROLLER:OUTDOORAIR,ZONE OFFICE WHOLEBUILDING - MD OFFICE B END_B - STORY GROUND PSZ-AC OA SYSTEM CONTROLLER,Sensor,1
 Non-Parent Node Connection,ZONE OFFICE WHOLEBUILDING - MD OFFICE B END_B - STORY GROUND PSZ-AC OUTDOOR AIR NODE,CONTROLLER:OUTDOORAIR,ZONE OFFICE WHOLEBUILDING - MD OFFICE B END_B - STORY GROUND PSZ-AC OA SYSTEM CONTROLLER,Actuator,1
 Non-Parent Node Connection,ZONE OFFICE WHOLEBUILDING - MD OFFICE B END_B - STORY GROUND PSZ-AC RELIEF AIR NODE,CONTROLLER:OUTDOORAIR,ZONE OFFICE WHOLEBUILDING - MD OFFICE B END_B - STORY GROUND PSZ-AC OA SYSTEM CONTROLLER,Actuator,1
 Non-Parent Node Connection,ZONE OFFICE WHOLEBUILDING - MD OFFICE B END_B - STORY GROUND PSZ-AC SUPPLY INLET NODE,CONTROLLER:OUTDOORAIR,ZONE OFFICE WHOLEBUILDING - MD OFFICE B END_B - STORY GROUND PSZ-AC OA SYSTEM CONTROLLER,Sensor,1
 Non-Parent Node Connection,ZONE OFFICE WHOLEBUILDING - MD OFFICE B END_B - STORY TOP PSZ-AC MIXED AIR NODE,CONTROLLER:OUTDOORAIR,ZONE OFFICE WHOLEBUILDING - MD OFFICE B END_B - STORY TOP PSZ-AC OA SYSTEM CONTROLLER,Sensor,1
 Non-Parent Node Connection,ZONE OFFICE WHOLEBUILDING - MD OFFICE B END_B - STORY TOP PSZ-AC OUTDOOR AIR NODE,CONTROLLER:OUTDOORAIR,ZONE OFFICE WHOLEBUILDING - MD OFFICE B END_B - STORY TOP PSZ-AC OA SYSTEM CONTROLLER,Actuator,1
 Non-Parent Node Connection,ZONE OFFICE WHOLEBUILDING - MD OFFICE B END_B - STORY TOP PSZ-AC RELIEF AIR NODE,CONTROLLER:OUTDOORAIR,ZONE OFFICE WHOLEBUILDING - MD OFFICE B END_B - STORY TOP PSZ-AC OA SYSTEM CONTROLLER,Actuator,1
 Non-Parent Node Connection,ZONE OFFICE WHOLEBUILDING - MD OFFICE B END_B - STORY TOP PSZ-AC SUPPLY INLET NODE,CONTROLLER:OUTDOORAIR,ZONE OFFICE WHOLEBUILDING - MD OFFICE B END_B - STORY TOP PSZ-AC OA SYSTEM CONTROLLER,Sensor,1
 Non-Parent Node Connection,ZONE OFFICE WHOLEBUILDING - MD OFFICE C  - STORY GROUND PSZ-AC MIXED AIR NODE,CONTROLLER:OUTDOORAIR,ZONE OFFICE WHOLEBUILDING - MD OFFICE C  - STORY GROUND PSZ-AC OA SYSTEM CONTROLLER,Sensor,1
 Non-Parent Node Connection,ZONE OFFICE WHOLEBUILDING - MD OFFICE C  - STORY GROUND PSZ-AC OUTDOOR AIR NODE,CONTROLLER:OUTDOORAIR,ZONE OFFICE WHOLEBUILDING - MD OFFICE C  - STORY GROUND PSZ-AC OA SYSTEM CONTROLLER,Actuator,1
 Non-Parent Node Connection,ZONE OFFICE WHOLEBUILDING - MD OFFICE C  - STORY GROUND PSZ-AC RELIEF AIR NODE,CONTROLLER:OUTDOORAIR,ZONE OFFICE WHOLEBUILDING - MD OFFICE C  - STORY GROUND PSZ-AC OA SYSTEM CONTROLLER,Actuator,1
 Non-Parent Node Connection,ZONE OFFICE WHOLEBUILDING - MD OFFICE C  - STORY GROUND PSZ-AC SUPPLY INLET NODE,CONTROLLER:OUTDOORAIR,ZONE OFFICE WHOLEBUILDING - MD OFFICE C  - STORY GROUND PSZ-AC OA SYSTEM CONTROLLER,Sensor,1
 Non-Parent Node Connection,ZONE OFFICE WHOLEBUILDING - MD OFFICE C  - STORY TOP PSZ-AC MIXED AIR NODE,CONTROLLER:OUTDOORAIR,ZONE OFFICE WHOLEBUILDING - MD OFFICE C  - STORY TOP PSZ-AC OA SYSTEM CONTROLLER,Sensor,1
 Non-Parent Node Connection,ZONE OFFICE WHOLEBUILDING - MD OFFICE C  - STORY TOP PSZ-AC OUTDOOR AIR NODE,CONTROLLER:OUTDOORAIR,ZONE OFFICE WHOLEBUILDING - MD OFFICE C  - STORY TOP PSZ-AC OA SYSTEM CONTROLLER,Actuator,1
 Non-Parent Node Connection,ZONE OFFICE WHOLEBUILDING - MD OFFICE C  - STORY TOP PSZ-AC RELIEF AIR NODE,CONTROLLER:OUTDOORAIR,ZONE OFFICE WHOLEBUILDING - MD OFFICE C  - STORY TOP PSZ-AC OA SYSTEM CONTROLLER,Actuator,1
 Non-Parent Node Connection,ZONE OFFICE WHOLEBUILDING - MD OFFICE C  - STORY TOP PSZ-AC SUPPLY INLET NODE,CONTROLLER:OUTDOORAIR,ZONE OFFICE WHOLEBUILDING - MD OFFICE C  - STORY TOP PSZ-AC OA SYSTEM CONTROLLER,Sensor,1
 Non-Parent Node Connection,ZONE OFFICE WHOLEBUILDING - MD OFFICE C END_A - STORY GROUND PSZ-AC MIXED AIR NODE,CONTROLLER:OUTDOORAIR,ZONE OFFICE WHOLEBUILDING - MD OFFICE C END_A - STORY GROUND PSZ-AC OA SYSTEM CONTROLLER,Sensor,1
 Non-Parent Node Connection,ZONE OFFICE WHOLEBUILDING - MD OFFICE C END_A - STORY GROUND PSZ-AC OUTDOOR AIR NODE,CONTROLLER:OUTDOORAIR,ZONE OFFICE WHOLEBUILDING - MD OFFICE C END_A - STORY GROUND PSZ-AC OA SYSTEM CONTROLLER,Actuator,1
 Non-Parent Node Connection,ZONE OFFICE WHOLEBUILDING - MD OFFICE C END_A - STORY GROUND PSZ-AC RELIEF AIR NODE,CONTROLLER:OUTDOORAIR,ZONE OFFICE WHOLEBUILDING - MD OFFICE C END_A - STORY GROUND PSZ-AC OA SYSTEM CONTROLLER,Actuator,1
 Non-Parent Node Connection,ZONE OFFICE WHOLEBUILDING - MD OFFICE C END_A - STORY GROUND PSZ-AC SUPPLY INLET NODE,CONTROLLER:OUTDOORAIR,ZONE OFFICE WHOLEBUILDING - MD OFFICE C END_A - STORY GROUND PSZ-AC OA SYSTEM CONTROLLER,Sensor,1
 Non-Parent Node Connection,ZONE OFFICE WHOLEBUILDING - MD OFFICE C END_A - STORY TOP PSZ-AC MIXED AIR NODE,CONTROLLER:OUTDOORAIR,ZONE OFFICE WHOLEBUILDING - MD OFFICE C END_A - STORY TOP PSZ-AC OA SYSTEM CONTROLLER,Sensor,1
 Non-Parent Node Connection,ZONE OFFICE WHOLEBUILDING - MD OFFICE C END_A - STORY TOP PSZ-AC OUTDOOR AIR NODE,CONTROLLER:OUTDOORAIR,ZONE OFFICE WHOLEBUILDING - MD OFFICE C END_A - STORY TOP PSZ-AC OA SYSTEM CONTROLLER,Actuator,1
 Non-Parent Node Connection,ZONE OFFICE WHOLEBUILDING - MD OFFICE C END_A - STORY TOP PSZ-AC RELIEF AIR NODE,CONTROLLER:OUTDOORAIR,ZONE OFFICE WHOLEBUILDING - MD OFFICE C END_A - STORY TOP PSZ-AC OA SYSTEM CONTROLLER,Actuator,1
 Non-Parent Node Connection,ZONE OFFICE WHOLEBUILDING - MD OFFICE C END_A - STORY TOP PSZ-AC SUPPLY INLET NODE,CONTROLLER:OUTDOORAIR,ZONE OFFICE WHOLEBUILDING - MD OFFICE C END_A - STORY TOP PSZ-AC OA SYSTEM CONTROLLER,Sensor,1
 Non-Parent Node Connection,ZONE OFFICE WHOLEBUILDING - MD OFFICE C END_B - STORY GROUND PSZ-AC MIXED AIR NODE,CONTROLLER:OUTDOORAIR,ZONE OFFICE WHOLEBUILDING - MD OFFICE C END_B - STORY GROUND PSZ-AC OA SYSTEM CONTROLLER,Sensor,1
 Non-Parent Node Connection,ZONE OFFICE WHOLEBUILDING - MD OFFICE C END_B - STORY GROUND PSZ-AC OUTDOOR AIR NODE,CONTROLLER:OUTDOORAIR,ZONE OFFICE WHOLEBUILDING - MD OFFICE C END_B - STORY GROUND PSZ-AC OA SYSTEM CONTROLLER,Actuator,1
 Non-Parent Node Connection,ZONE OFFICE WHOLEBUILDING - MD OFFICE C END_B - STORY GROUND PSZ-AC RELIEF AIR NODE,CONTROLLER:OUTDOORAIR,ZONE OFFICE WHOLEBUILDING - MD OFFICE C END_B - STORY GROUND PSZ-AC OA SYSTEM CONTROLLER,Actuator,1
 Non-Parent Node Connection,ZONE OFFICE WHOLEBUILDING - MD OFFICE C END_B - STORY GROUND PSZ-AC SUPPLY INLET NODE,CONTROLLER:OUTDOORAIR,ZONE OFFICE WHOLEBUILDING - MD OFFICE C END_B - STORY GROUND PSZ-AC OA SYSTEM CONTROLLER,Sensor,1
 Non-Parent Node Connection,ZONE OFFICE WHOLEBUILDING - MD OFFICE C END_B - STORY TOP PSZ-AC MIXED AIR NODE,CONTROLLER:OUTDOORAIR,ZONE OFFICE WHOLEBUILDING - MD OFFICE C END_B - STORY TOP PSZ-AC OA SYSTEM CONTROLLER,Sensor,1
 Non-Parent Node Connection,ZONE OFFICE WHOLEBUILDING - MD OFFICE C END_B - STORY TOP PSZ-AC OUTDOOR AIR NODE,CONTROLLER:OUTDOORAIR,ZONE OFFICE WHOLEBUILDING - MD OFFICE C END_B - STORY TOP PSZ-AC OA SYSTEM CONTROLLER,Actuator,1
 Non-Parent Node Connection,ZONE OFFICE WHOLEBUILDING - MD OFFICE C END_B - STORY TOP PSZ-AC RELIEF AIR NODE,CONTROLLER:OUTDOORAIR,ZONE OFFICE WHOLEBUILDING - MD OFFICE C END_B - STORY TOP PSZ-AC OA SYSTEM CONTROLLER,Actuator,1
 Non-Parent Node Connection,ZONE OFFICE WHOLEBUILDING - MD OFFICE C END_B - STORY TOP PSZ-AC SUPPLY INLET NODE,CONTROLLER:OUTDOORAIR,ZONE OFFICE WHOLEBUILDING - MD OFFICE C END_B - STORY TOP PSZ-AC OA SYSTEM CONTROLLER,Sensor,1
 Non-Parent Node Connection,MAIN SERVICE WATER LOOP SUPPLY INLET NODE,PUMP:VARIABLESPEED,MAIN SERVICE WATER LOOP WATER MAINS PRESSURE DRIVEN,Inlet,1
 Non-Parent Node Connection,MAIN SERVICE WATER LOOP WATER MAINS PRESSURE DRIVEN OUTLET WATER NODE,PUMP:VARIABLESPEED,MAIN SERVICE WATER LOOP WATER MAINS PRESSURE DRIVEN,Outlet,1
 Non-Parent Node Connection,OFFICE SHARED SERVICE WATER LOOP SUPPLY INLET NODE,PUMP:CONSTANTSPEED,OFFICE SHARED SERVICE WATER LOOP CIRCULATOR PUMP,Inlet,1
 Non-Parent Node Connection,OFFICE SHARED SERVICE WATER LOOP CIRCULATOR PUMP OUTLET WATER NODE,PUMP:CONSTANTSPEED,OFFICE SHARED SERVICE WATER LOOP CIRCULATOR PUMP,Outlet,1
