Program Version,EnergyPlus, Version 22.2.0-aa78da9668, YMD=2023.06.21 18:08
! This file shows details about the branches, nodes, and other
! elements of the flow connections.
! This file is intended for use in "debugging" potential problems
! that may also be detected by the program, but may be more easily
! identified by "eye".
! This file is also intended to support software which draws a
! schematic diagram of the HVAC system.
! ===============================================================
! #Nodes,<Number of Unique Nodes>
 #Nodes,197
! <Node>,<NodeNumber>,<Node Name>,<Node Fluid Type>,<# Times Node Referenced After Definition>
 Node,1,ZONE WAREHOUSE FINE A  - STORY GROUND PSZ-AC DIFFUSER OUTLET AIR NODE,Air,4
 Node,2,ZONE WAREHOUSE FINE A  - STORY GROUND RETURN AIR NODE,Air,2
 Node,3,ZONE WAREHOUSE FINE A END_B - STORY GROUND PSZ-AC DIFFUSER OUTLET AIR NODE,Air,4
 Node,4,ZONE WAREHOUSE FINE A END_B - STORY GROUND RETURN AIR NODE,Air,2
 Node,5,ZONE WAREHOUSE FINE B  - STORY GROUND PSZ-AC DIFFUSER OUTLET AIR NODE,Air,4
 Node,6,ZONE WAREHOUSE FINE B  - STORY GROUND RETURN AIR NODE,Air,2
 Node,7,ZONE WAREHOUSE FINE B END_B - STORY GROUND PSZ-AC DIFFUSER OUTLET AIR NODE,Air,4
 Node,8,ZONE WAREHOUSE FINE B END_B - STORY GROUND RETURN AIR NODE,Air,2
 Node,9,ZONE WAREHOUSE FINE C  - STORY GROUND PSZ-AC DIFFUSER OUTLET AIR NODE,Air,4
 Node,10,ZONE WAREHOUSE FINE C  - STORY GROUND RETURN AIR NODE,Air,2
 Node,11,ZONE WAREHOUSE FINE C END_B - STORY GROUND PSZ-AC DIFFUSER OUTLET AIR NODE,Air,4
 Node,12,ZONE WAREHOUSE FINE C END_B - STORY GROUND RETURN AIR NODE,Air,2
 Node,13,ZONE WAREHOUSE OFFICE A  - STORY GROUND PSZ-AC DIFFUSER OUTLET AIR NODE,Air,4
 Node,14,ZONE WAREHOUSE OFFICE A  - STORY GROUND RETURN AIR NODE,Air,2
 Node,15,ZONE WAREHOUSE OFFICE B  - STORY GROUND PSZ-AC DIFFUSER OUTLET AIR NODE,Air,4
 Node,16,ZONE WAREHOUSE OFFICE B  - STORY GROUND RETURN AIR NODE,Air,2
 Node,17,ZONE WAREHOUSE OFFICE C  - STORY GROUND PSZ-AC DIFFUSER OUTLET AIR NODE,Air,4
 Node,18,ZONE WAREHOUSE OFFICE C  - STORY GROUND RETURN AIR NODE,Air,2
 Node,19,ZONE WAREHOUSE FINE A  - STORY GROUND PSZ-AC SUPPLY OUTLET NODE,Air,6
 Node,20,ZONE WAREHOUSE FINE A  - STORY GROUND PSZ-AC DEMAND INLET NODE,Air,3
 Node,21,ZONE WAREHOUSE FINE A END_B - STORY GROUND PSZ-AC SUPPLY OUTLET NODE,Air,6
 Node,22,ZONE WAREHOUSE FINE A END_B - STORY GROUND PSZ-AC DEMAND INLET NODE,Air,3
 Node,23,ZONE WAREHOUSE FINE B  - STORY GROUND PSZ-AC SUPPLY OUTLET NODE,Air,6
 Node,24,ZONE WAREHOUSE FINE B  - STORY GROUND PSZ-AC DEMAND INLET NODE,Air,3
 Node,25,ZONE WAREHOUSE FINE B END_B - STORY GROUND PSZ-AC SUPPLY OUTLET NODE,Air,6
 Node,26,ZONE WAREHOUSE FINE B END_B - STORY GROUND PSZ-AC DEMAND INLET NODE,Air,3
 Node,27,ZONE WAREHOUSE FINE C  - STORY GROUND PSZ-AC SUPPLY OUTLET NODE,Air,6
 Node,28,ZONE WAREHOUSE FINE C  - STORY GROUND PSZ-AC DEMAND INLET NODE,Air,3
 Node,29,ZONE WAREHOUSE FINE C END_B - STORY GROUND PSZ-AC SUPPLY OUTLET NODE,Air,6
 Node,30,ZONE WAREHOUSE FINE C END_B - STORY GROUND PSZ-AC DEMAND INLET NODE,Air,3
 Node,31,ZONE WAREHOUSE OFFICE A  - STORY GROUND PSZ-AC SUPPLY OUTLET NODE,Air,6
 Node,32,ZONE WAREHOUSE OFFICE A  - STORY GROUND PSZ-AC DEMAND INLET NODE,Air,3
 Node,33,ZONE WAREHOUSE OFFICE B  - STORY GROUND PSZ-AC SUPPLY OUTLET NODE,Air,6
 Node,34,ZONE WAREHOUSE OFFICE B  - STORY GROUND PSZ-AC DEMAND INLET NODE,Air,3
 Node,35,ZONE WAREHOUSE OFFICE C  - STORY GROUND PSZ-AC SUPPLY OUTLET NODE,Air,6
 Node,36,ZONE WAREHOUSE OFFICE C  - STORY GROUND PSZ-AC DEMAND INLET NODE,Air,3
 Node,37,ZONE WAREHOUSE FINE A  - STORY GROUND PSZ-AC SUPPLY INLET NODE,Air,3
 Node,38,ZONE WAREHOUSE FINE A  - STORY GROUND PSZ-AC MIXED AIR NODE,Air,6
 Node,39,ZONE WAREHOUSE FINE A END_B - STORY GROUND PSZ-AC SUPPLY INLET NODE,Air,3
 Node,40,ZONE WAREHOUSE FINE A END_B - STORY GROUND PSZ-AC MIXED AIR NODE,Air,6
 Node,41,ZONE WAREHOUSE FINE B  - STORY GROUND PSZ-AC SUPPLY INLET NODE,Air,4
 Node,42,ZONE WAREHOUSE FINE B  - STORY GROUND PSZ-AC MIXED AIR NODE,Air,8
 Node,43,ZONE WAREHOUSE FINE B END_B - STORY GROUND PSZ-AC SUPPLY INLET NODE,Air,3
 Node,44,ZONE WAREHOUSE FINE B END_B - STORY GROUND PSZ-AC MIXED AIR NODE,Air,6
 Node,45,ZONE WAREHOUSE FINE C  - STORY GROUND PSZ-AC SUPPLY INLET NODE,Air,3
 Node,46,ZONE WAREHOUSE FINE C  - STORY GROUND PSZ-AC MIXED AIR NODE,Air,6
 Node,47,ZONE WAREHOUSE FINE C END_B - STORY GROUND PSZ-AC SUPPLY INLET NODE,Air,3
 Node,48,ZONE WAREHOUSE FINE C END_B - STORY GROUND PSZ-AC MIXED AIR NODE,Air,6
 Node,49,ZONE WAREHOUSE OFFICE A  - STORY GROUND PSZ-AC SUPPLY INLET NODE,Air,3
 Node,50,ZONE WAREHOUSE OFFICE A  - STORY GROUND PSZ-AC MIXED AIR NODE,Air,6
 Node,51,ZONE WAREHOUSE OFFICE B  - STORY GROUND PSZ-AC SUPPLY INLET NODE,Air,3
 Node,52,ZONE WAREHOUSE OFFICE B  - STORY GROUND PSZ-AC MIXED AIR NODE,Air,6
 Node,53,ZONE WAREHOUSE OFFICE C  - STORY GROUND PSZ-AC SUPPLY INLET NODE,Air,3
 Node,54,ZONE WAREHOUSE OFFICE C  - STORY GROUND PSZ-AC MIXED AIR NODE,Air,6
 Node,55,HOT WATER LOOP SUPPLY INLET NODE,Water,2
 Node,56,HOT WATER LOOP PUMP OUTLET WATER NODE,Water,1
 Node,57,HOT WATER LOOP DISTRICT HEATING INLET WATER NODE,Water,1
 Node,58,HOT WATER LOOP DISTRICT HEATING OUTLET WATER NODE,Water,1
 Node,59,HOT WATER LOOP SUPPLY EQUIPMENT BYPASS INLET WATER NODE,Water,1
 Node,60,HOT WATER LOOP SUPPLY EQUIPMENT BYPASS OUTLET WATER NODE,Water,1
 Node,61,HOT WATER LOOP SUPPLY OUTLET INLET WATER NODE,Water,1
 Node,62,HOT WATER LOOP SUPPLY OUTLET NODE,Water,4
 Node,63,HOT WATER LOOP DEMAND INLET NODE,Water,2
 Node,64,HOT WATER LOOP DEMAND INLET OUTLET WATER NODE,Water,1
 Node,65,HOT WATER LOOP COIL BYPASS INLET WATER NODE,Water,1
 Node,66,HOT WATER LOOP COIL BYPASS OUTLET WATER NODE,Water,1
 Node,67,ZONE WAREHOUSE FINE A  - STORY GROUND PSZ-AC WATER HTG COIL INLET WATER NODE,Water,1
 Node,68,ZONE WAREHOUSE FINE A  - STORY GROUND PSZ-AC WATER HTG COIL OUTLET WATER NODE,Water,1
 Node,69,ZONE WAREHOUSE FINE A END_B - STORY GROUND PSZ-AC WATER HTG COIL INLET WATER NODE,Water,1
 Node,70,ZONE WAREHOUSE FINE A END_B - STORY GROUND PSZ-AC WATER HTG COIL OUTLET WATER NODE,Water,1
 Node,71,ZONE WAREHOUSE FINE B  - STORY GROUND PSZ-AC WATER HTG COIL INLET WATER NODE,Water,1
 Node,72,ZONE WAREHOUSE FINE B  - STORY GROUND PSZ-AC WATER HTG COIL OUTLET WATER NODE,Water,1
 Node,73,ZONE WAREHOUSE FINE B END_B - STORY GROUND PSZ-AC WATER HTG COIL INLET WATER NODE,Water,1
 Node,74,ZONE WAREHOUSE FINE B END_B - STORY GROUND PSZ-AC WATER HTG COIL OUTLET WATER NODE,Water,1
 Node,75,ZONE WAREHOUSE FINE C  - STORY GROUND PSZ-AC WATER HTG COIL INLET WATER NODE,Water,1
 Node,76,ZONE WAREHOUSE FINE C  - STORY GROUND PSZ-AC WATER HTG COIL OUTLET WATER NODE,Water,1
 Node,77,ZONE WAREHOUSE FINE C END_B - STORY GROUND PSZ-AC WATER HTG COIL INLET WATER NODE,Water,1
 Node,78,ZONE WAREHOUSE FINE C END_B - STORY GROUND PSZ-AC WATER HTG COIL OUTLET WATER NODE,Water,1
 Node,79,ZONE WAREHOUSE OFFICE A  - STORY GROUND PSZ-AC WATER HTG COIL INLET WATER NODE,Water,1
 Node,80,ZONE WAREHOUSE OFFICE A  - STORY GROUND PSZ-AC WATER HTG COIL OUTLET WATER NODE,Water,1
 Node,81,ZONE WAREHOUSE OFFICE B  - STORY GROUND PSZ-AC WATER HTG COIL INLET WATER NODE,Water,1
 Node,82,ZONE WAREHOUSE OFFICE B  - STORY GROUND PSZ-AC WATER HTG COIL OUTLET WATER NODE,Water,1
 Node,83,ZONE WAREHOUSE OFFICE C  - STORY GROUND PSZ-AC WATER HTG COIL INLET WATER NODE,Water,1
 Node,84,ZONE WAREHOUSE OFFICE C  - STORY GROUND PSZ-AC WATER HTG COIL OUTLET WATER NODE,Water,1
 Node,85,ZONE WAREHOUSE BULK A  - STORY GROUND HYDRONIC BASEBOARD COIL INLET WATER NODE,Water,1
 Node,86,ZONE WAREHOUSE BULK A  - STORY GROUND HYDRONIC BASEBOARD COIL OUTLET WATER NODE,Water,1
 Node,87,ZONE WAREHOUSE BULK A END_A - STORY GROUND HYDRONIC BASEBOARD COIL INLET WATER NODE,Water,1
 Node,88,ZONE WAREHOUSE BULK A END_A - STORY GROUND HYDRONIC BASEBOARD COIL OUTLET WATER NODE,Water,1
 Node,89,ZONE WAREHOUSE BULK B  - STORY GROUND HYDRONIC BASEBOARD COIL INLET WATER NODE,Water,1
 Node,90,ZONE WAREHOUSE BULK B  - STORY GROUND HYDRONIC BASEBOARD COIL OUTLET WATER NODE,Water,1
 Node,91,ZONE WAREHOUSE BULK B END_A - STORY GROUND HYDRONIC BASEBOARD COIL INLET WATER NODE,Water,1
 Node,92,ZONE WAREHOUSE BULK B END_A - STORY GROUND HYDRONIC BASEBOARD COIL OUTLET WATER NODE,Water,1
 Node,93,ZONE WAREHOUSE BULK C  - STORY GROUND HYDRONIC BASEBOARD COIL INLET WATER NODE,Water,1
 Node,94,ZONE WAREHOUSE BULK C  - STORY GROUND HYDRONIC BASEBOARD COIL OUTLET WATER NODE,Water,1
 Node,95,ZONE WAREHOUSE BULK C END_A - STORY GROUND HYDRONIC BASEBOARD COIL INLET WATER NODE,Water,1
 Node,96,ZONE WAREHOUSE BULK C END_A - STORY GROUND HYDRONIC BASEBOARD COIL OUTLET WATER NODE,Water,1
 Node,97,HOT WATER LOOP DEMAND BYPASS PIPE INLET NODE,Water,1
 Node,98,HOT WATER LOOP DEMAND BYPASS PIPE OUTLET NODE,Water,1
 Node,99,HOT WATER LOOP DEMAND OUTLET INLET WATER NODE,Water,1
 Node,100,HOT WATER LOOP DEMAND OUTLET NODE,Water,2
 Node,101,MAIN SERVICE WATER LOOP SUPPLY INLET NODE,Water,2
 Node,102,MAIN SERVICE WATER LOOP WATER MAINS PRESSURE DRIVEN OUTLET WATER NODE,Water,1
 Node,103,40GAL ELECTRICITY WATER HEATER - 40KBTU/HR 1.0 THERM EFF SUPPLY INLET WATER NODE,Water,1
 Node,104,40GAL ELECTRICITY WATER HEATER - 40KBTU/HR 1.0 THERM EFF SUPPLY OUTLET WATER NODE,Water,1
 Node,105,PIPE ADIABATIC 1 INLET WATER NODE,Water,1
 Node,106,PIPE ADIABATIC 1 OUTLET WATER NODE,Water,1
 Node,107,PIPE ADIABATIC 3 INLET WATER NODE,Water,1
 Node,108,MAIN SERVICE WATER LOOP SUPPLY OUTLET NODE,Water,4
 Node,109,MAIN SERVICE WATER LOOP DEMAND INLET NODE,Water,2
 Node,110,MAIN SERVICE WATER LOOP DEMAND INLET PIPE NODE,Water,1
 Node,111,PIPE ADIABATIC 2 INLET WATER NODE,Water,1
 Node,112,PIPE ADIABATIC 2 OUTLET WATER NODE,Water,1
 Node,113,MAIN SERVICE WATER LOOP DEMAND BYPASS PIPE INLET NODE,Water,1
 Node,114,MAIN SERVICE WATER LOOP DEMAND BYPASS PIPE OUTLET NODE,Water,1
 Node,115,PIPE ADIABATIC 4 INLET WATER NODE,Water,1
 Node,116,MAIN SERVICE WATER LOOP DEMAND OUTLET NODE,Water,2
 Node,117,ZONE WAREHOUSE BULK A  - STORY GROUND ZONE AIR NODE,Air,0
 Node,118,ZONE WAREHOUSE BULK A END_A - STORY GROUND ZONE AIR NODE,Air,0
 Node,119,ZONE WAREHOUSE BULK B  - STORY GROUND ZONE AIR NODE,Air,0
 Node,120,ZONE WAREHOUSE BULK B END_A - STORY GROUND ZONE AIR NODE,Air,0
 Node,121,ZONE WAREHOUSE BULK C  - STORY GROUND ZONE AIR NODE,Air,0
 Node,122,ZONE WAREHOUSE BULK C END_A - STORY GROUND ZONE AIR NODE,Air,0
 Node,123,ZONE WAREHOUSE FINE A  - STORY GROUND ZONE AIR NODE,Air,1
 Node,124,ZONE WAREHOUSE FINE A END_B - STORY GROUND ZONE AIR NODE,Air,1
 Node,125,ZONE WAREHOUSE FINE B  - STORY GROUND ZONE AIR NODE,Air,1
 Node,126,ZONE WAREHOUSE FINE B END_B - STORY GROUND ZONE AIR NODE,Air,1
 Node,127,ZONE WAREHOUSE FINE C  - STORY GROUND ZONE AIR NODE,Air,1
 Node,128,ZONE WAREHOUSE FINE C END_B - STORY GROUND ZONE AIR NODE,Air,1
 Node,129,ZONE WAREHOUSE OFFICE A  - STORY GROUND ZONE AIR NODE,Air,1
 Node,130,ZONE WAREHOUSE OFFICE B  - STORY GROUND ZONE AIR NODE,Air,1
 Node,131,ZONE WAREHOUSE OFFICE C  - STORY GROUND ZONE AIR NODE,Air,1
 Node,132,ZONE WAREHOUSE FINE A  - STORY GROUND PSZ-AC DEMAND OUTLET NODE,Air,2
 Node,133,ZONE WAREHOUSE FINE A END_B - STORY GROUND PSZ-AC DEMAND OUTLET NODE,Air,2
 Node,134,ZONE WAREHOUSE FINE B  - STORY GROUND PSZ-AC DEMAND OUTLET NODE,Air,2
 Node,135,ZONE WAREHOUSE FINE B END_B - STORY GROUND PSZ-AC DEMAND OUTLET NODE,Air,2
 Node,136,ZONE WAREHOUSE FINE C  - STORY GROUND PSZ-AC DEMAND OUTLET NODE,Air,2
 Node,137,ZONE WAREHOUSE FINE C END_B - STORY GROUND PSZ-AC DEMAND OUTLET NODE,Air,2
 Node,138,ZONE WAREHOUSE OFFICE A  - STORY GROUND PSZ-AC DEMAND OUTLET NODE,Air,2
 Node,139,ZONE WAREHOUSE OFFICE B  - STORY GROUND PSZ-AC DEMAND OUTLET NODE,Air,2
 Node,140,ZONE WAREHOUSE OFFICE C  - STORY GROUND PSZ-AC DEMAND OUTLET NODE,Air,2
 Node,141,ZONE WAREHOUSE FINE A  - STORY GROUND PSZ-AC OUTDOOR AIR NODE,Air,2
 Node,142,ZONE WAREHOUSE FINE A END_B - STORY GROUND PSZ-AC OUTDOOR AIR NODE,Air,2
 Node,143,ZONE WAREHOUSE FINE B  - STORY GROUND PSZ-AC OUTDOOR AIR NODE,Air,3
 Node,144,ZONE WAREHOUSE FINE B END_B - STORY GROUND PSZ-AC OUTDOOR AIR NODE,Air,2
 Node,145,ZONE WAREHOUSE FINE C  - STORY GROUND PSZ-AC OUTDOOR AIR NODE,Air,2
 Node,146,ZONE WAREHOUSE FINE C END_B - STORY GROUND PSZ-AC OUTDOOR AIR NODE,Air,2
 Node,147,ZONE WAREHOUSE OFFICE A  - STORY GROUND PSZ-AC OUTDOOR AIR NODE,Air,2
 Node,148,ZONE WAREHOUSE OFFICE B  - STORY GROUND PSZ-AC OUTDOOR AIR NODE,Air,2
 Node,149,ZONE WAREHOUSE OFFICE C  - STORY GROUND PSZ-AC OUTDOOR AIR NODE,Air,2
 Node,150,MODEL OUTDOOR AIR NODE,Air,0
 Node,151,ZONE WAREHOUSE FINE A  - STORY GROUND PSZ-AC UNITARY AC HEATING COIL - FAN NODE,Air,2
 Node,152,ZONE WAREHOUSE FINE A  - STORY GROUND PSZ-AC UNITARY AC FAN - SUPPLEMENTAL COIL NODE,Air,2
 Node,153,ZONE WAREHOUSE FINE A END_B - STORY GROUND PSZ-AC UNITARY AC HEATING COIL - FAN NODE,Air,2
 Node,154,ZONE WAREHOUSE FINE A END_B - STORY GROUND PSZ-AC UNITARY AC FAN - SUPPLEMENTAL COIL NODE,Air,2
 Node,155,ZONE WAREHOUSE FINE B  - STORY GROUND PSZ-AC UNITARY AC HEATING COIL - FAN NODE,Air,2
 Node,156,ZONE WAREHOUSE FINE B  - STORY GROUND PSZ-AC UNITARY AC FAN - SUPPLEMENTAL COIL NODE,Air,2
 Node,157,ZONE WAREHOUSE FINE B END_B - STORY GROUND PSZ-AC UNITARY AC HEATING COIL - FAN NODE,Air,2
 Node,158,ZONE WAREHOUSE FINE B END_B - STORY GROUND PSZ-AC UNITARY AC FAN - SUPPLEMENTAL COIL NODE,Air,2
 Node,159,ZONE WAREHOUSE FINE C  - STORY GROUND PSZ-AC UNITARY AC HEATING COIL - FAN NODE,Air,2
 Node,160,ZONE WAREHOUSE FINE C  - STORY GROUND PSZ-AC UNITARY AC FAN - SUPPLEMENTAL COIL NODE,Air,2
 Node,161,ZONE WAREHOUSE FINE C END_B - STORY GROUND PSZ-AC UNITARY AC HEATING COIL - FAN NODE,Air,2
 Node,162,ZONE WAREHOUSE FINE C END_B - STORY GROUND PSZ-AC UNITARY AC FAN - SUPPLEMENTAL COIL NODE,Air,2
 Node,163,ZONE WAREHOUSE OFFICE A  - STORY GROUND PSZ-AC UNITARY AC HEATING COIL - FAN NODE,Air,2
 Node,164,ZONE WAREHOUSE OFFICE A  - STORY GROUND PSZ-AC UNITARY AC FAN - SUPPLEMENTAL COIL NODE,Air,2
 Node,165,ZONE WAREHOUSE OFFICE B  - STORY GROUND PSZ-AC UNITARY AC HEATING COIL - FAN NODE,Air,2
 Node,166,ZONE WAREHOUSE OFFICE B  - STORY GROUND PSZ-AC UNITARY AC FAN - SUPPLEMENTAL COIL NODE,Air,2
 Node,167,ZONE WAREHOUSE OFFICE C  - STORY GROUND PSZ-AC UNITARY AC HEATING COIL - FAN NODE,Air,2
 Node,168,ZONE WAREHOUSE OFFICE C  - STORY GROUND PSZ-AC UNITARY AC FAN - SUPPLEMENTAL COIL NODE,Air,2
 Node,169,NODE 2,Air,2
 Node,170,ZONE WAREHOUSE FINE A  - STORY GROUND PSZ-AC DIFFUSER INLET AIR NODE,Air,1
 Node,171,ZONE WAREHOUSE FINE A END_B - STORY GROUND PSZ-AC DIFFUSER INLET AIR NODE,Air,1
 Node,172,ZONE WAREHOUSE FINE B  - STORY GROUND PSZ-AC DIFFUSER INLET AIR NODE,Air,1
 Node,173,ZONE WAREHOUSE FINE B END_B - STORY GROUND PSZ-AC DIFFUSER INLET AIR NODE,Air,1
 Node,174,ZONE WAREHOUSE FINE C  - STORY GROUND PSZ-AC DIFFUSER INLET AIR NODE,Air,1
 Node,175,ZONE WAREHOUSE FINE C END_B - STORY GROUND PSZ-AC DIFFUSER INLET AIR NODE,Air,1
 Node,176,ZONE WAREHOUSE OFFICE A  - STORY GROUND PSZ-AC DIFFUSER INLET AIR NODE,Air,1
 Node,177,ZONE WAREHOUSE OFFICE B  - STORY GROUND PSZ-AC DIFFUSER INLET AIR NODE,Air,1
 Node,178,ZONE WAREHOUSE OFFICE C  - STORY GROUND PSZ-AC DIFFUSER INLET AIR NODE,Air,1
 Node,179,ZONE WAREHOUSE FINE A  - STORY GROUND PSZ-AC RELIEF AIR NODE,Air,1
 Node,180,ZONE WAREHOUSE FINE A END_B - STORY GROUND PSZ-AC RELIEF AIR NODE,Air,1
 Node,181,NODE 3,Air,2
 Node,182,ZONE WAREHOUSE FINE B END_B - STORY GROUND PSZ-AC RELIEF AIR NODE,Air,1
 Node,183,ZONE WAREHOUSE FINE C  - STORY GROUND PSZ-AC RELIEF AIR NODE,Air,1
 Node,184,ZONE WAREHOUSE FINE C END_B - STORY GROUND PSZ-AC RELIEF AIR NODE,Air,1
 Node,185,ZONE WAREHOUSE OFFICE A  - STORY GROUND PSZ-AC RELIEF AIR NODE,Air,1
 Node,186,ZONE WAREHOUSE OFFICE B  - STORY GROUND PSZ-AC RELIEF AIR NODE,Air,1
 Node,187,ZONE WAREHOUSE OFFICE C  - STORY GROUND PSZ-AC RELIEF AIR NODE,Air,1
 Node,188,ZONE WAREHOUSE FINE A  - STORY GROUND PSZ-AC UNITARY AC COOLING COIL - HEATING COIL NODE,Air,1
 Node,189,ZONE WAREHOUSE FINE A END_B - STORY GROUND PSZ-AC UNITARY AC COOLING COIL - HEATING COIL NODE,Air,1
 Node,190,ZONE WAREHOUSE FINE B  - STORY GROUND PSZ-AC UNITARY AC COOLING COIL - HEATING COIL NODE,Air,1
 Node,191,ZONE WAREHOUSE FINE B END_B - STORY GROUND PSZ-AC UNITARY AC COOLING COIL - HEATING COIL NODE,Air,1
 Node,192,ZONE WAREHOUSE FINE C  - STORY GROUND PSZ-AC UNITARY AC COOLING COIL - HEATING COIL NODE,Air,1
 Node,193,ZONE WAREHOUSE FINE C END_B - STORY GROUND PSZ-AC UNITARY AC COOLING COIL - HEATING COIL NODE,Air,1
 Node,194,ZONE WAREHOUSE OFFICE A  - STORY GROUND PSZ-AC UNITARY AC COOLING COIL - HEATING COIL NODE,Air,1
 Node,195,ZONE WAREHOUSE OFFICE B  - STORY GROUND PSZ-AC UNITARY AC COOLING COIL - HEATING COIL NODE,Air,1
 Node,196,ZONE WAREHOUSE OFFICE C  - STORY GROUND PSZ-AC UNITARY AC COOLING COIL - HEATING COIL NODE,Air,1
 Node,197,ZONE WAREHOUSE FINE B  - STORY GROUND PSZ-AC RELIEF AIR NODE,Air,0
! ===============================================================
! Suspicious nodes have 0 references.  It is normal for some nodes, however.
! Listing nodes with 0 references (culled from previous list):
! <Suspicious Node>,<NodeNumber>,<Node Name>,<Node Fluid Type>,<# Times Node Referenced After Definition>
 Suspicious Node,117,ZONE WAREHOUSE BULK A  - STORY GROUND ZONE AIR NODE,Air,0
 Suspicious Node,118,ZONE WAREHOUSE BULK A END_A - STORY GROUND ZONE AIR NODE,Air,0
 Suspicious Node,119,ZONE WAREHOUSE BULK B  - STORY GROUND ZONE AIR NODE,Air,0
 Suspicious Node,120,ZONE WAREHOUSE BULK B END_A - STORY GROUND ZONE AIR NODE,Air,0
 Suspicious Node,121,ZONE WAREHOUSE BULK C  - STORY GROUND ZONE AIR NODE,Air,0
 Suspicious Node,122,ZONE WAREHOUSE BULK C END_A - STORY GROUND ZONE AIR NODE,Air,0
 Suspicious Node,150,MODEL OUTDOOR AIR NODE,Air,0
 Suspicious Node,197,ZONE WAREHOUSE FINE B  - STORY GROUND PSZ-AC RELIEF AIR NODE,Air,0
! ===============================================================
! <#Branch Lists>,<Number of Branch Lists>
 #Branch Lists,13
! <Branch List>,<Branch List Count>,<Branch List Name>,<Loop Name>,<Loop Type>,<Number of Branches>
! <Branch>,<Branch Count>,<Branch Name>,<Loop Name>,<Loop Type>,<Branch Inlet Node Name>,<Branch Outlet Node Name>
 Branch List,1,ZONE WAREHOUSE FINE A  - STORY GROUND PSZ-AC SUPPLY BRANCHES,ZONE WAREHOUSE FINE A  - STORY GROUND PSZ-AC,Air,1
   Branch,1,ZONE WAREHOUSE FINE A  - STORY GROUND PSZ-AC MAIN BRANCH,ZONE WAREHOUSE FINE A  - STORY GROUND PSZ-AC,Air,ZONE WAREHOUSE FINE A  - STORY GROUND PSZ-AC SUPPLY INLET NODE,ZONE WAREHOUSE FINE A  - STORY GROUND PSZ-AC SUPPLY OUTLET NODE
 Branch List,2,ZONE WAREHOUSE FINE A END_B - STORY GROUND PSZ-AC SUPPLY BRANCHES,ZONE WAREHOUSE FINE A END_B - STORY GROUND PSZ-AC,Air,1
   Branch,1,ZONE WAREHOUSE FINE A END_B - STORY GROUND PSZ-AC MAIN BRANCH,ZONE WAREHOUSE FINE A END_B - STORY GROUND PSZ-AC,Air,ZONE WAREHOUSE FINE A END_B - STORY GROUND PSZ-AC SUPPLY INLET NODE,ZONE WAREHOUSE FINE A END_B - STORY GROUND PSZ-AC SUPPLY OUTLET NODE
 Branch List,3,ZONE WAREHOUSE FINE B  - STORY GROUND PSZ-AC SUPPLY BRANCHES,ZONE WAREHOUSE FINE B  - STORY GROUND PSZ-AC,Air,1
   Branch,1,ZONE WAREHOUSE FINE B  - STORY GROUND PSZ-AC MAIN BRANCH,ZONE WAREHOUSE FINE B  - STORY GROUND PSZ-AC,Air,ZONE WAREHOUSE FINE B  - STORY GROUND PSZ-AC SUPPLY INLET NODE,ZONE WAREHOUSE FINE B  - STORY GROUND PSZ-AC SUPPLY OUTLET NODE
 Branch List,4,ZONE WAREHOUSE FINE B END_B - STORY GROUND PSZ-AC SUPPLY BRANCHES,ZONE WAREHOUSE FINE B END_B - STORY GROUND PSZ-AC,Air,1
   Branch,1,ZONE WAREHOUSE FINE B END_B - STORY GROUND PSZ-AC MAIN BRANCH,ZONE WAREHOUSE FINE B END_B - STORY GROUND PSZ-AC,Air,ZONE WAREHOUSE FINE B END_B - STORY GROUND PSZ-AC SUPPLY INLET NODE,ZONE WAREHOUSE FINE B END_B - STORY GROUND PSZ-AC SUPPLY OUTLET NODE
 Branch List,5,ZONE WAREHOUSE FINE C  - STORY GROUND PSZ-AC SUPPLY BRANCHES,ZONE WAREHOUSE FINE C  - STORY GROUND PSZ-AC,Air,1
   Branch,1,ZONE WAREHOUSE FINE C  - STORY GROUND PSZ-AC MAIN BRANCH,ZONE WAREHOUSE FINE C  - STORY GROUND PSZ-AC,Air,ZONE WAREHOUSE FINE C  - STORY GROUND PSZ-AC SUPPLY INLET NODE,ZONE WAREHOUSE FINE C  - STORY GROUND PSZ-AC SUPPLY OUTLET NODE
 Branch List,6,ZONE WAREHOUSE FINE C END_B - STORY GROUND PSZ-AC SUPPLY BRANCHES,ZONE WAREHOUSE FINE C END_B - STORY GROUND PSZ-AC,Air,1
   Branch,1,ZONE WAREHOUSE FINE C END_B - STORY GROUND PSZ-AC MAIN BRANCH,ZONE WAREHOUSE FINE C END_B - STORY GROUND PSZ-AC,Air,ZONE WAREHOUSE FINE C END_B - STORY GROUND PSZ-AC SUPPLY INLET NODE,ZONE WAREHOUSE FINE C END_B - STORY GROUND PSZ-AC SUPPLY OUTLET NODE
 Branch List,7,ZONE WAREHOUSE OFFICE A  - STORY GROUND PSZ-AC SUPPLY BRANCHES,ZONE WAREHOUSE OFFICE A  - STORY GROUND PSZ-AC,Air,1
   Branch,1,ZONE WAREHOUSE OFFICE A  - STORY GROUND PSZ-AC MAIN BRANCH,ZONE WAREHOUSE OFFICE A  - STORY GROUND PSZ-AC,Air,ZONE WAREHOUSE OFFICE A  - STORY GROUND PSZ-AC SUPPLY INLET NODE,ZONE WAREHOUSE OFFICE A  - STORY GROUND PSZ-AC SUPPLY OUTLET NODE
 Branch List,8,ZONE WAREHOUSE OFFICE B  - STORY GROUND PSZ-AC SUPPLY BRANCHES,ZONE WAREHOUSE OFFICE B  - STORY GROUND PSZ-AC,Air,1
   Branch,1,ZONE WAREHOUSE OFFICE B  - STORY GROUND PSZ-AC MAIN BRANCH,ZONE WAREHOUSE OFFICE B  - STORY GROUND PSZ-AC,Air,ZONE WAREHOUSE OFFICE B  - STORY GROUND PSZ-AC SUPPLY INLET NODE,ZONE WAREHOUSE OFFICE B  - STORY GROUND PSZ-AC SUPPLY OUTLET NODE
 Branch List,9,ZONE WAREHOUSE OFFICE C  - STORY GROUND PSZ-AC SUPPLY BRANCHES,ZONE WAREHOUSE OFFICE C  - STORY GROUND PSZ-AC,Air,1
   Branch,1,ZONE WAREHOUSE OFFICE C  - STORY GROUND PSZ-AC MAIN BRANCH,ZONE WAREHOUSE OFFICE C  - STORY GROUND PSZ-AC,Air,ZONE WAREHOUSE OFFICE C  - STORY GROUND PSZ-AC SUPPLY INLET NODE,ZONE WAREHOUSE OFFICE C  - STORY GROUND PSZ-AC SUPPLY OUTLET NODE
 Branch List,10,HOT WATER LOOP SUPPLY BRANCHES,HOT WATER LOOP,Plant Supply,4
   Branch,1,HOT WATER LOOP SUPPLY INLET BRANCH,HOT WATER LOOP,Plant Supply,HOT WATER LOOP SUPPLY INLET NODE,HOT WATER LOOP PUMP OUTLET WATER NODE
   Branch,2,HOT WATER LOOP SUPPLY BRANCH 1,HOT WATER LOOP,Plant Supply,HOT WATER LOOP DISTRICT HEATING INLET WATER NODE,HOT WATER LOOP DISTRICT HEATING OUTLET WATER NODE
   Branch,3,HOT WATER LOOP SUPPLY BRANCH 2,HOT WATER LOOP,Plant Supply,HOT WATER LOOP SUPPLY EQUIPMENT BYPASS INLET WATER NODE,HOT WATER LOOP SUPPLY EQUIPMENT BYPASS OUTLET WATER NODE
   Branch,4,HOT WATER LOOP SUPPLY OUTLET BRANCH,HOT WATER LOOP,Plant Supply,HOT WATER LOOP SUPPLY OUTLET INLET WATER NODE,HOT WATER LOOP SUPPLY OUTLET NODE
 Branch List,11,HOT WATER LOOP DEMAND BRANCHES,HOT WATER LOOP,Plant Demand,19
   Branch,1,HOT WATER LOOP DEMAND INLET BRANCH,HOT WATER LOOP,Plant Demand,HOT WATER LOOP DEMAND INLET NODE,HOT WATER LOOP DEMAND INLET OUTLET WATER NODE
   Branch,2,HOT WATER LOOP DEMAND BRANCH 1,HOT WATER LOOP,Plant Demand,HOT WATER LOOP COIL BYPASS INLET WATER NODE,HOT WATER LOOP COIL BYPASS OUTLET WATER NODE
   Branch,3,HOT WATER LOOP DEMAND BRANCH 2,HOT WATER LOOP,Plant Demand,ZONE WAREHOUSE FINE A  - STORY GROUND PSZ-AC WATER HTG COIL INLET WATER NODE,ZONE WAREHOUSE FINE A  - STORY GROUND PSZ-AC WATER HTG COIL OUTLET WATER NODE
   Branch,4,HOT WATER LOOP DEMAND BRANCH 3,HOT WATER LOOP,Plant Demand,ZONE WAREHOUSE FINE A END_B - STORY GROUND PSZ-AC WATER HTG COIL INLET WATER NODE,ZONE WAREHOUSE FINE A END_B - STORY GROUND PSZ-AC WATER HTG COIL OUTLET WATER NODE
   Branch,5,HOT WATER LOOP DEMAND BRANCH 4,HOT WATER LOOP,Plant Demand,ZONE WAREHOUSE FINE B  - STORY GROUND PSZ-AC WATER HTG COIL INLET WATER NODE,ZONE WAREHOUSE FINE B  - STORY GROUND PSZ-AC WATER HTG COIL OUTLET WATER NODE
   Branch,6,HOT WATER LOOP DEMAND BRANCH 5,HOT WATER LOOP,Plant Demand,ZONE WAREHOUSE FINE B END_B - STORY GROUND PSZ-AC WATER HTG COIL INLET WATER NODE,ZONE WAREHOUSE FINE B END_B - STORY GROUND PSZ-AC WATER HTG COIL OUTLET WATER NODE
   Branch,7,HOT WATER LOOP DEMAND BRANCH 6,HOT WATER LOOP,Plant Demand,ZONE WAREHOUSE FINE C  - STORY GROUND PSZ-AC WATER HTG COIL INLET WATER NODE,ZONE WAREHOUSE FINE C  - STORY GROUND PSZ-AC WATER HTG COIL OUTLET WATER NODE
   Branch,8,HOT WATER LOOP DEMAND BRANCH 7,HOT WATER LOOP,Plant Demand,ZONE WAREHOUSE FINE C END_B - STORY GROUND PSZ-AC WATER HTG COIL INLET WATER NODE,ZONE WAREHOUSE FINE C END_B - STORY GROUND PSZ-AC WATER HTG COIL OUTLET WATER NODE
   Branch,9,HOT WATER LOOP DEMAND BRANCH 8,HOT WATER LOOP,Plant Demand,ZONE WAREHOUSE OFFICE A  - STORY GROUND PSZ-AC WATER HTG COIL INLET WATER NODE,ZONE WAREHOUSE OFFICE A  - STORY GROUND PSZ-AC WATER HTG COIL OUTLET WATER NODE
   Branch,10,HOT WATER LOOP DEMAND BRANCH 9,HOT WATER LOOP,Plant Demand,ZONE WAREHOUSE OFFICE B  - STORY GROUND PSZ-AC WATER HTG COIL INLET WATER NODE,ZONE WAREHOUSE OFFICE B  - STORY GROUND PSZ-AC WATER HTG COIL OUTLET WATER NODE
   Branch,11,HOT WATER LOOP DEMAND BRANCH 10,HOT WATER LOOP,Plant Demand,ZONE WAREHOUSE OFFICE C  - STORY GROUND PSZ-AC WATER HTG COIL INLET WATER NODE,ZONE WAREHOUSE OFFICE C  - STORY GROUND PSZ-AC WATER HTG COIL OUTLET WATER NODE
   Branch,12,HOT WATER LOOP DEMAND BRANCH 11,HOT WATER LOOP,Plant Demand,ZONE WAREHOUSE BULK A  - STORY GROUND HYDRONIC BASEBOARD COIL INLET WATER NODE,ZONE WAREHOUSE BULK A  - STORY GROUND HYDRONIC BASEBOARD COIL OUTLET WATER NODE
   Branch,13,HOT WATER LOOP DEMAND BRANCH 12,HOT WATER LOOP,Plant Demand,ZONE WAREHOUSE BULK A END_A - STORY GROUND HYDRONIC BASEBOARD COIL INLET WATER NODE,ZONE WAREHOUSE BULK A END_A - STORY GROUND HYDRONIC BASEBOARD COIL OUTLET WATER NODE
   Branch,14,HOT WATER LOOP DEMAND BRANCH 13,HOT WATER LOOP,Plant Demand,ZONE WAREHOUSE BULK B  - STORY GROUND HYDRONIC BASEBOARD COIL INLET WATER NODE,ZONE WAREHOUSE BULK B  - STORY GROUND HYDRONIC BASEBOARD COIL OUTLET WATER NODE
   Branch,15,HOT WATER LOOP DEMAND BRANCH 14,HOT WATER LOOP,Plant Demand,ZONE WAREHOUSE BULK B END_A - STORY GROUND HYDRONIC BASEBOARD COIL INLET WATER NODE,ZONE WAREHOUSE BULK B END_A - STORY GROUND HYDRONIC BASEBOARD COIL OUTLET WATER NODE
   Branch,16,HOT WATER LOOP DEMAND BRANCH 15,HOT WATER LOOP,Plant Demand,ZONE WAREHOUSE BULK C  - STORY GROUND HYDRONIC BASEBOARD COIL INLET WATER NODE,ZONE WAREHOUSE BULK C  - STORY GROUND HYDRONIC BASEBOARD COIL OUTLET WATER NODE
   Branch,17,HOT WATER LOOP DEMAND BRANCH 16,HOT WATER LOOP,Plant Demand,ZONE WAREHOUSE BULK C END_A - STORY GROUND HYDRONIC BASEBOARD COIL INLET WATER NODE,ZONE WAREHOUSE BULK C END_A - STORY GROUND HYDRONIC BASEBOARD COIL OUTLET WATER NODE
   Branch,18,HOT WATER LOOP DEMAND BYPASS BRANCH,HOT WATER LOOP,Plant Demand,HOT WATER LOOP DEMAND BYPASS PIPE INLET NODE,HOT WATER LOOP DEMAND BYPASS PIPE OUTLET NODE
   Branch,19,HOT WATER LOOP DEMAND OUTLET BRANCH,HOT WATER LOOP,Plant Demand,HOT WATER LOOP DEMAND OUTLET INLET WATER NODE,HOT WATER LOOP DEMAND OUTLET NODE
 Branch List,12,MAIN SERVICE WATER LOOP SUPPLY BRANCHES,MAIN SERVICE WATER LOOP,Plant Supply,4
   Branch,1,MAIN SERVICE WATER LOOP SUPPLY INLET BRANCH,MAIN SERVICE WATER LOOP,Plant Supply,MAIN SERVICE WATER LOOP SUPPLY INLET NODE,MAIN SERVICE WATER LOOP WATER MAINS PRESSURE DRIVEN OUTLET WATER NODE
   Branch,2,MAIN SERVICE WATER LOOP SUPPLY BRANCH 1,MAIN SERVICE WATER LOOP,Plant Supply,40GAL ELECTRICITY WATER HEATER - 40KBTU/HR 1.0 THERM EFF SUPPLY INLET WATER NODE,40GAL ELECTRICITY WATER HEATER - 40KBTU/HR 1.0 THERM EFF SUPPLY OUTLET WATER NODE
   Branch,3,MAIN SERVICE WATER LOOP SUPPLY BRANCH 2,MAIN SERVICE WATER LOOP,Plant Supply,PIPE ADIABATIC 1 INLET WATER NODE,PIPE ADIABATIC 1 OUTLET WATER NODE
   Branch,4,MAIN SERVICE WATER LOOP SUPPLY OUTLET BRANCH,MAIN SERVICE WATER LOOP,Plant Supply,PIPE ADIABATIC 3 INLET WATER NODE,MAIN SERVICE WATER LOOP SUPPLY OUTLET NODE
 Branch List,13,MAIN SERVICE WATER LOOP DEMAND BRANCHES,MAIN SERVICE WATER LOOP,Plant Demand,4
   Branch,1,MAIN SERVICE WATER LOOP DEMAND INLET BRANCH,MAIN SERVICE WATER LOOP,Plant Demand,MAIN SERVICE WATER LOOP DEMAND INLET NODE,MAIN SERVICE WATER LOOP DEMAND INLET PIPE NODE
   Branch,2,MAIN SERVICE WATER LOOP DEMAND BRANCH 1,MAIN SERVICE WATER LOOP,Plant Demand,PIPE ADIABATIC 2 INLET WATER NODE,PIPE ADIABATIC 2 OUTLET WATER NODE
   Branch,3,MAIN SERVICE WATER LOOP DEMAND BYPASS BRANCH,MAIN SERVICE WATER LOOP,Plant Demand,MAIN SERVICE WATER LOOP DEMAND BYPASS PIPE INLET NODE,MAIN SERVICE WATER LOOP DEMAND BYPASS PIPE OUTLET NODE
   Branch,4,MAIN SERVICE WATER LOOP DEMAND OUTLET BRANCH,MAIN SERVICE WATER LOOP,Plant Demand,PIPE ADIABATIC 4 INLET WATER NODE,MAIN SERVICE WATER LOOP DEMAND OUTLET NODE
! ===============================================================
! <#Supply Air Paths>,<Number of Supply Air Paths>
 #Supply Air Paths,9
! <Supply Air Path>,<Supply Air Path Count>,<Supply Air Path Name>,<AirLoopHVAC Name>
! <#Components on Supply Air Path>,<Number of Components>
! <Supply Air Path Component>,<Component Count>,<Component Type>,<Component Name>,<AirLoopHVAC Name>
! <#Outlet Nodes on Supply Air Path Component>,<Number of Nodes>
! <Supply Air Path Component Nodes>,<Node Count>,<Component Type>,<Component Name>,<Inlet Node Name>,<Outlet Node Name>,<AirLoopHVAC Name>
 Supply Air Path,1,ZONE WAREHOUSE FINE A  - STORY GROUND PSZ-AC ZONE WAREHOUSE FINE A  - STORY GROUND PSZ-AC DEMAND INLET NODE SUPPLY PATH,ZONE WAREHOUSE FINE A  - STORY GROUND PSZ-AC
   #Components on Supply Air Path,1
   Supply Air Path Component,1,AIRLOOPHVAC:ZONESPLITTER,AIR LOOP HVAC ZONE SPLITTER 1,ZONE WAREHOUSE FINE A  - STORY GROUND PSZ-AC
     #Outlet Nodes on Supply Air Path Component,1
     Supply Air Path Component Nodes,1,AIRLOOPHVAC:ZONESPLITTER,AIR LOOP HVAC ZONE SPLITTER 1,ZONE WAREHOUSE FINE A  - STORY GROUND PSZ-AC DEMAND INLET NODE,ZONE WAREHOUSE FINE A  - STORY GROUND PSZ-AC DIFFUSER INLET AIR NODE,ZONE WAREHOUSE FINE A  - STORY GROUND PSZ-AC
! <#Nodes on Supply Air Path>,<Number of Nodes>
! <Supply Air Path Node>,<Node Type>,<Node Count>,<Node Name>,<AirLoopHVAC Name>
#Nodes on Supply Air Path,2
   Supply Air Path Node,Inlet Node,1,ZONE WAREHOUSE FINE A  - STORY GROUND PSZ-AC DEMAND INLET NODE,ZONE WAREHOUSE FINE A  - STORY GROUND PSZ-AC
   Supply Air Path Node,Outlet Node,2,ZONE WAREHOUSE FINE A  - STORY GROUND PSZ-AC DIFFUSER INLET AIR NODE,ZONE WAREHOUSE FINE A  - STORY GROUND PSZ-AC
 Supply Air Path,2,ZONE WAREHOUSE FINE A END_B - STORY GROUND PSZ-AC ZONE WAREHOUSE FINE A END_B - STORY GROUND PSZ-AC DEMAND INLET NODE SUPPLY PATH,ZONE WAREHOUSE FINE A END_B - STORY GROUND PSZ-AC
   #Components on Supply Air Path,1
   Supply Air Path Component,1,AIRLOOPHVAC:ZONESPLITTER,AIR LOOP HVAC ZONE SPLITTER 2,ZONE WAREHOUSE FINE A END_B - STORY GROUND PSZ-AC
     #Outlet Nodes on Supply Air Path Component,1
     Supply Air Path Component Nodes,1,AIRLOOPHVAC:ZONESPLITTER,AIR LOOP HVAC ZONE SPLITTER 2,ZONE WAREHOUSE FINE A END_B - STORY GROUND PSZ-AC DEMAND INLET NODE,ZONE WAREHOUSE FINE A END_B - STORY GROUND PSZ-AC DIFFUSER INLET AIR NODE,ZONE WAREHOUSE FINE A END_B - STORY GROUND PSZ-AC
! <#Nodes on Supply Air Path>,<Number of Nodes>
! <Supply Air Path Node>,<Node Type>,<Node Count>,<Node Name>,<AirLoopHVAC Name>
#Nodes on Supply Air Path,2
   Supply Air Path Node,Inlet Node,1,ZONE WAREHOUSE FINE A END_B - STORY GROUND PSZ-AC DEMAND INLET NODE,ZONE WAREHOUSE FINE A END_B - STORY GROUND PSZ-AC
   Supply Air Path Node,Outlet Node,2,ZONE WAREHOUSE FINE A END_B - STORY GROUND PSZ-AC DIFFUSER INLET AIR NODE,ZONE WAREHOUSE FINE A END_B - STORY GROUND PSZ-AC
 Supply Air Path,3,ZONE WAREHOUSE FINE B  - STORY GROUND PSZ-AC ZONE WAREHOUSE FINE B  - STORY GROUND PSZ-AC DEMAND INLET NODE SUPPLY PATH,ZONE WAREHOUSE FINE B  - STORY GROUND PSZ-AC
   #Components on Supply Air Path,1
   Supply Air Path Component,1,AIRLOOPHVAC:ZONESPLITTER,AIR LOOP HVAC ZONE SPLITTER 3,ZONE WAREHOUSE FINE B  - STORY GROUND PSZ-AC
     #Outlet Nodes on Supply Air Path Component,1
     Supply Air Path Component Nodes,1,AIRLOOPHVAC:ZONESPLITTER,AIR LOOP HVAC ZONE SPLITTER 3,ZONE WAREHOUSE FINE B  - STORY GROUND PSZ-AC DEMAND INLET NODE,ZONE WAREHOUSE FINE B  - STORY GROUND PSZ-AC DIFFUSER INLET AIR NODE,ZONE WAREHOUSE FINE B  - STORY GROUND PSZ-AC
! <#Nodes on Supply Air Path>,<Number of Nodes>
! <Supply Air Path Node>,<Node Type>,<Node Count>,<Node Name>,<AirLoopHVAC Name>
#Nodes on Supply Air Path,2
   Supply Air Path Node,Inlet Node,1,ZONE WAREHOUSE FINE B  - STORY GROUND PSZ-AC DEMAND INLET NODE,ZONE WAREHOUSE FINE B  - STORY GROUND PSZ-AC
   Supply Air Path Node,Outlet Node,2,ZONE WAREHOUSE FINE B  - STORY GROUND PSZ-AC DIFFUSER INLET AIR NODE,ZONE WAREHOUSE FINE B  - STORY GROUND PSZ-AC
 Supply Air Path,4,ZONE WAREHOUSE FINE B END_B - STORY GROUND PSZ-AC ZONE WAREHOUSE FINE B END_B - STORY GROUND PSZ-AC DEMAND INLET NODE SUPPLY PATH,ZONE WAREHOUSE FINE B END_B - STORY GROUND PSZ-AC
   #Components on Supply Air Path,1
   Supply Air Path Component,1,AIRLOOPHVAC:ZONESPLITTER,AIR LOOP HVAC ZONE SPLITTER 4,ZONE WAREHOUSE FINE B END_B - STORY GROUND PSZ-AC
     #Outlet Nodes on Supply Air Path Component,1
     Supply Air Path Component Nodes,1,AIRLOOPHVAC:ZONESPLITTER,AIR LOOP HVAC ZONE SPLITTER 4,ZONE WAREHOUSE FINE B END_B - STORY GROUND PSZ-AC DEMAND INLET NODE,ZONE WAREHOUSE FINE B END_B - STORY GROUND PSZ-AC DIFFUSER INLET AIR NODE,ZONE WAREHOUSE FINE B END_B - STORY GROUND PSZ-AC
! <#Nodes on Supply Air Path>,<Number of Nodes>
! <Supply Air Path Node>,<Node Type>,<Node Count>,<Node Name>,<AirLoopHVAC Name>
#Nodes on Supply Air Path,2
   Supply Air Path Node,Inlet Node,1,ZONE WAREHOUSE FINE B END_B - STORY GROUND PSZ-AC DEMAND INLET NODE,ZONE WAREHOUSE FINE B END_B - STORY GROUND PSZ-AC
   Supply Air Path Node,Outlet Node,2,ZONE WAREHOUSE FINE B END_B - STORY GROUND PSZ-AC DIFFUSER INLET AIR NODE,ZONE WAREHOUSE FINE B END_B - STORY GROUND PSZ-AC
 Supply Air Path,5,ZONE WAREHOUSE FINE C  - STORY GROUND PSZ-AC ZONE WAREHOUSE FINE C  - STORY GROUND PSZ-AC DEMAND INLET NODE SUPPLY PATH,ZONE WAREHOUSE FINE C  - STORY GROUND PSZ-AC
   #Components on Supply Air Path,1
   Supply Air Path Component,1,AIRLOOPHVAC:ZONESPLITTER,AIR LOOP HVAC ZONE SPLITTER 5,ZONE WAREHOUSE FINE C  - STORY GROUND PSZ-AC
     #Outlet Nodes on Supply Air Path Component,1
     Supply Air Path Component Nodes,1,AIRLOOPHVAC:ZONESPLITTER,AIR LOOP HVAC ZONE SPLITTER 5,ZONE WAREHOUSE FINE C  - STORY GROUND PSZ-AC DEMAND INLET NODE,ZONE WAREHOUSE FINE C  - STORY GROUND PSZ-AC DIFFUSER INLET AIR NODE,ZONE WAREHOUSE FINE C  - STORY GROUND PSZ-AC
! <#Nodes on Supply Air Path>,<Number of Nodes>
! <Supply Air Path Node>,<Node Type>,<Node Count>,<Node Name>,<AirLoopHVAC Name>
#Nodes on Supply Air Path,2
   Supply Air Path Node,Inlet Node,1,ZONE WAREHOUSE FINE C  - STORY GROUND PSZ-AC DEMAND INLET NODE,ZONE WAREHOUSE FINE C  - STORY GROUND PSZ-AC
   Supply Air Path Node,Outlet Node,2,ZONE WAREHOUSE FINE C  - STORY GROUND PSZ-AC DIFFUSER INLET AIR NODE,ZONE WAREHOUSE FINE C  - STORY GROUND PSZ-AC
 Supply Air Path,6,ZONE WAREHOUSE FINE C END_B - STORY GROUND PSZ-AC ZONE WAREHOUSE FINE C END_B - STORY GROUND PSZ-AC DEMAND INLET NODE SUPPLY PATH,ZONE WAREHOUSE FINE C END_B - STORY GROUND PSZ-AC
   #Components on Supply Air Path,1
   Supply Air Path Component,1,AIRLOOPHVAC:ZONESPLITTER,AIR LOOP HVAC ZONE SPLITTER 6,ZONE WAREHOUSE FINE C END_B - STORY GROUND PSZ-AC
     #Outlet Nodes on Supply Air Path Component,1
     Supply Air Path Component Nodes,1,AIRLOOPHVAC:ZONESPLITTER,AIR LOOP HVAC ZONE SPLITTER 6,ZONE WAREHOUSE FINE C END_B - STORY GROUND PSZ-AC DEMAND INLET NODE,ZONE WAREHOUSE FINE C END_B - STORY GROUND PSZ-AC DIFFUSER INLET AIR NODE,ZONE WAREHOUSE FINE C END_B - STORY GROUND PSZ-AC
! <#Nodes on Supply Air Path>,<Number of Nodes>
! <Supply Air Path Node>,<Node Type>,<Node Count>,<Node Name>,<AirLoopHVAC Name>
#Nodes on Supply Air Path,2
   Supply Air Path Node,Inlet Node,1,ZONE WAREHOUSE FINE C END_B - STORY GROUND PSZ-AC DEMAND INLET NODE,ZONE WAREHOUSE FINE C END_B - STORY GROUND PSZ-AC
   Supply Air Path Node,Outlet Node,2,ZONE WAREHOUSE FINE C END_B - STORY GROUND PSZ-AC DIFFUSER INLET AIR NODE,ZONE WAREHOUSE FINE C END_B - STORY GROUND PSZ-AC
 Supply Air Path,7,ZONE WAREHOUSE OFFICE A  - STORY GROUND PSZ-AC ZONE WAREHOUSE OFFICE A  - STORY GROUND PSZ-AC DEMAND INLET NODE SUPPLY PATH,ZONE WAREHOUSE OFFICE A  - STORY GROUND PSZ-AC
   #Components on Supply Air Path,1
   Supply Air Path Component,1,AIRLOOPHVAC:ZONESPLITTER,AIR LOOP HVAC ZONE SPLITTER 7,ZONE WAREHOUSE OFFICE A  - STORY GROUND PSZ-AC
     #Outlet Nodes on Supply Air Path Component,1
     Supply Air Path Component Nodes,1,AIRLOOPHVAC:ZONESPLITTER,AIR LOOP HVAC ZONE SPLITTER 7,ZONE WAREHOUSE OFFICE A  - STORY GROUND PSZ-AC DEMAND INLET NODE,ZONE WAREHOUSE OFFICE A  - STORY GROUND PSZ-AC DIFFUSER INLET AIR NODE,ZONE WAREHOUSE OFFICE A  - STORY GROUND PSZ-AC
! <#Nodes on Supply Air Path>,<Number of Nodes>
! <Supply Air Path Node>,<Node Type>,<Node Count>,<Node Name>,<AirLoopHVAC Name>
#Nodes on Supply Air Path,2
   Supply Air Path Node,Inlet Node,1,ZONE WAREHOUSE OFFICE A  - STORY GROUND PSZ-AC DEMAND INLET NODE,ZONE WAREHOUSE OFFICE A  - STORY GROUND PSZ-AC
   Supply Air Path Node,Outlet Node,2,ZONE WAREHOUSE OFFICE A  - STORY GROUND PSZ-AC DIFFUSER INLET AIR NODE,ZONE WAREHOUSE OFFICE A  - STORY GROUND PSZ-AC
 Supply Air Path,8,ZONE WAREHOUSE OFFICE B  - STORY GROUND PSZ-AC ZONE WAREHOUSE OFFICE B  - STORY GROUND PSZ-AC DEMAND INLET NODE SUPPLY PATH,ZONE WAREHOUSE OFFICE B  - STORY GROUND PSZ-AC
   #Components on Supply Air Path,1
   Supply Air Path Component,1,AIRLOOPHVAC:ZONESPLITTER,AIR LOOP HVAC ZONE SPLITTER 8,ZONE WAREHOUSE OFFICE B  - STORY GROUND PSZ-AC
     #Outlet Nodes on Supply Air Path Component,1
     Supply Air Path Component Nodes,1,AIRLOOPHVAC:ZONESPLITTER,AIR LOOP HVAC ZONE SPLITTER 8,ZONE WAREHOUSE OFFICE B  - STORY GROUND PSZ-AC DEMAND INLET NODE,ZONE WAREHOUSE OFFICE B  - STORY GROUND PSZ-AC DIFFUSER INLET AIR NODE,ZONE WAREHOUSE OFFICE B  - STORY GROUND PSZ-AC
! <#Nodes on Supply Air Path>,<Number of Nodes>
! <Supply Air Path Node>,<Node Type>,<Node Count>,<Node Name>,<AirLoopHVAC Name>
#Nodes on Supply Air Path,2
   Supply Air Path Node,Inlet Node,1,ZONE WAREHOUSE OFFICE B  - STORY GROUND PSZ-AC DEMAND INLET NODE,ZONE WAREHOUSE OFFICE B  - STORY GROUND PSZ-AC
   Supply Air Path Node,Outlet Node,2,ZONE WAREHOUSE OFFICE B  - STORY GROUND PSZ-AC DIFFUSER INLET AIR NODE,ZONE WAREHOUSE OFFICE B  - STORY GROUND PSZ-AC
 Supply Air Path,9,ZONE WAREHOUSE OFFICE C  - STORY GROUND PSZ-AC ZONE WAREHOUSE OFFICE C  - STORY GROUND PSZ-AC DEMAND INLET NODE SUPPLY PATH,ZONE WAREHOUSE OFFICE C  - STORY GROUND PSZ-AC
   #Components on Supply Air Path,1
   Supply Air Path Component,1,AIRLOOPHVAC:ZONESPLITTER,AIR LOOP HVAC ZONE SPLITTER 9,ZONE WAREHOUSE OFFICE C  - STORY GROUND PSZ-AC
     #Outlet Nodes on Supply Air Path Component,1
     Supply Air Path Component Nodes,1,AIRLOOPHVAC:ZONESPLITTER,AIR LOOP HVAC ZONE SPLITTER 9,ZONE WAREHOUSE OFFICE C  - STORY GROUND PSZ-AC DEMAND INLET NODE,ZONE WAREHOUSE OFFICE C  - STORY GROUND PSZ-AC DIFFUSER INLET AIR NODE,ZONE WAREHOUSE OFFICE C  - STORY GROUND PSZ-AC
! <#Nodes on Supply Air Path>,<Number of Nodes>
! <Supply Air Path Node>,<Node Type>,<Node Count>,<Node Name>,<AirLoopHVAC Name>
#Nodes on Supply Air Path,2
   Supply Air Path Node,Inlet Node,1,ZONE WAREHOUSE OFFICE C  - STORY GROUND PSZ-AC DEMAND INLET NODE,ZONE WAREHOUSE OFFICE C  - STORY GROUND PSZ-AC
   Supply Air Path Node,Outlet Node,2,ZONE WAREHOUSE OFFICE C  - STORY GROUND PSZ-AC DIFFUSER INLET AIR NODE,ZONE WAREHOUSE OFFICE C  - STORY GROUND PSZ-AC
! ===============================================================
! <#Return Air Paths>,<Number of Return Air Paths>
 #Return Air Paths,9
! <Return Air Path>,<Return Air Path Count>,<Return Air Path Name>,<AirLoopHVAC Name>
! <#Components on Return Air Path>,<Number of Components>
! <Return Air Path Component>,<Component Count>,<Component Type>,<Component Name>,<AirLoopHVAC Name>
! <#Inlet Nodes on Return Air Path Component>,<Number of Nodes>
! <Return Air Path Component Nodes>,<Node Count>,<Component Type>,<Component Name>,<Inlet Node Name>,<Outlet Node Name>,<AirLoopHVAC Name>
 Return Air Path,1,ZONE WAREHOUSE FINE A  - STORY GROUND PSZ-AC RETURN PATH,ZONE WAREHOUSE FINE A  - STORY GROUND PSZ-AC
   #Components on Return Air Path,1
   Return Air Path Component,1,AIRLOOPHVAC:ZONEMIXER,AIR LOOP HVAC ZONE MIXER 1,ZONE WAREHOUSE FINE A  - STORY GROUND PSZ-AC
     #Inlet Nodes on Return Air Path Component,1
     Return Air Path Component Nodes,1,AIRLOOPHVAC:ZONEMIXER,AIR LOOP HVAC ZONE MIXER 1,ZONE WAREHOUSE FINE A  - STORY GROUND RETURN AIR NODE,ZONE WAREHOUSE FINE A  - STORY GROUND PSZ-AC DEMAND OUTLET NODE,ZONE WAREHOUSE FINE A  - STORY GROUND PSZ-AC
! <#Nodes on Return Air Path>,<Number of Nodes>
! <Return Air Path Node>,<Node Type>,<Node Count>,<Node Name>,<AirLoopHVAC Name>
   #Nodes on Return Air Path,2
   Return Air Path Node,Outlet Node,1,ZONE WAREHOUSE FINE A  - STORY GROUND PSZ-AC DEMAND OUTLET NODE,ZONE WAREHOUSE FINE A  - STORY GROUND PSZ-AC
   Return Air Path Node,Inlet Node,2,ZONE WAREHOUSE FINE A  - STORY GROUND RETURN AIR NODE,ZONE WAREHOUSE FINE A  - STORY GROUND PSZ-AC
 Return Air Path,2,ZONE WAREHOUSE FINE A END_B - STORY GROUND PSZ-AC RETURN PATH,ZONE WAREHOUSE FINE A END_B - STORY GROUND PSZ-AC
   #Components on Return Air Path,1
   Return Air Path Component,1,AIRLOOPHVAC:ZONEMIXER,AIR LOOP HVAC ZONE MIXER 2,ZONE WAREHOUSE FINE A END_B - STORY GROUND PSZ-AC
     #Inlet Nodes on Return Air Path Component,1
     Return Air Path Component Nodes,1,AIRLOOPHVAC:ZONEMIXER,AIR LOOP HVAC ZONE MIXER 2,ZONE WAREHOUSE FINE A END_B - STORY GROUND RETURN AIR NODE,ZONE WAREHOUSE FINE A END_B - STORY GROUND PSZ-AC DEMAND OUTLET NODE,ZONE WAREHOUSE FINE A END_B - STORY GROUND PSZ-AC
! <#Nodes on Return Air Path>,<Number of Nodes>
! <Return Air Path Node>,<Node Type>,<Node Count>,<Node Name>,<AirLoopHVAC Name>
   #Nodes on Return Air Path,2
   Return Air Path Node,Outlet Node,1,ZONE WAREHOUSE FINE A END_B - STORY GROUND PSZ-AC DEMAND OUTLET NODE,ZONE WAREHOUSE FINE A END_B - STORY GROUND PSZ-AC
   Return Air Path Node,Inlet Node,2,ZONE WAREHOUSE FINE A END_B - STORY GROUND RETURN AIR NODE,ZONE WAREHOUSE FINE A END_B - STORY GROUND PSZ-AC
 Return Air Path,3,ZONE WAREHOUSE FINE B  - STORY GROUND PSZ-AC RETURN PATH,ZONE WAREHOUSE FINE B  - STORY GROUND PSZ-AC
   #Components on Return Air Path,1
   Return Air Path Component,1,AIRLOOPHVAC:ZONEMIXER,AIR LOOP HVAC ZONE MIXER 3,ZONE WAREHOUSE FINE B  - STORY GROUND PSZ-AC
     #Inlet Nodes on Return Air Path Component,1
     Return Air Path Component Nodes,1,AIRLOOPHVAC:ZONEMIXER,AIR LOOP HVAC ZONE MIXER 3,ZONE WAREHOUSE FINE B  - STORY GROUND RETURN AIR NODE,ZONE WAREHOUSE FINE B  - STORY GROUND PSZ-AC DEMAND OUTLET NODE,ZONE WAREHOUSE FINE B  - STORY GROUND PSZ-AC
! <#Nodes on Return Air Path>,<Number of Nodes>
! <Return Air Path Node>,<Node Type>,<Node Count>,<Node Name>,<AirLoopHVAC Name>
   #Nodes on Return Air Path,2
   Return Air Path Node,Outlet Node,1,ZONE WAREHOUSE FINE B  - STORY GROUND PSZ-AC DEMAND OUTLET NODE,ZONE WAREHOUSE FINE B  - STORY GROUND PSZ-AC
   Return Air Path Node,Inlet Node,2,ZONE WAREHOUSE FINE B  - STORY GROUND RETURN AIR NODE,ZONE WAREHOUSE FINE B  - STORY GROUND PSZ-AC
 Return Air Path,4,ZONE WAREHOUSE FINE B END_B - STORY GROUND PSZ-AC RETURN PATH,ZONE WAREHOUSE FINE B END_B - STORY GROUND PSZ-AC
   #Components on Return Air Path,1
   Return Air Path Component,1,AIRLOOPHVAC:ZONEMIXER,AIR LOOP HVAC ZONE MIXER 4,ZONE WAREHOUSE FINE B END_B - STORY GROUND PSZ-AC
     #Inlet Nodes on Return Air Path Component,1
     Return Air Path Component Nodes,1,AIRLOOPHVAC:ZONEMIXER,AIR LOOP HVAC ZONE MIXER 4,ZONE WAREHOUSE FINE B END_B - STORY GROUND RETURN AIR NODE,ZONE WAREHOUSE FINE B END_B - STORY GROUND PSZ-AC DEMAND OUTLET NODE,ZONE WAREHOUSE FINE B END_B - STORY GROUND PSZ-AC
! <#Nodes on Return Air Path>,<Number of Nodes>
! <Return Air Path Node>,<Node Type>,<Node Count>,<Node Name>,<AirLoopHVAC Name>
   #Nodes on Return Air Path,2
   Return Air Path Node,Outlet Node,1,ZONE WAREHOUSE FINE B END_B - STORY GROUND PSZ-AC DEMAND OUTLET NODE,ZONE WAREHOUSE FINE B END_B - STORY GROUND PSZ-AC
   Return Air Path Node,Inlet Node,2,ZONE WAREHOUSE FINE B END_B - STORY GROUND RETURN AIR NODE,ZONE WAREHOUSE FINE B END_B - STORY GROUND PSZ-AC
 Return Air Path,5,ZONE WAREHOUSE FINE C  - STORY GROUND PSZ-AC RETURN PATH,ZONE WAREHOUSE FINE C  - STORY GROUND PSZ-AC
   #Components on Return Air Path,1
   Return Air Path Component,1,AIRLOOPHVAC:ZONEMIXER,AIR LOOP HVAC ZONE MIXER 5,ZONE WAREHOUSE FINE C  - STORY GROUND PSZ-AC
     #Inlet Nodes on Return Air Path Component,1
     Return Air Path Component Nodes,1,AIRLOOPHVAC:ZONEMIXER,AIR LOOP HVAC ZONE MIXER 5,ZONE WAREHOUSE FINE C  - STORY GROUND RETURN AIR NODE,ZONE WAREHOUSE FINE C  - STORY GROUND PSZ-AC DEMAND OUTLET NODE,ZONE WAREHOUSE FINE C  - STORY GROUND PSZ-AC
! <#Nodes on Return Air Path>,<Number of Nodes>
! <Return Air Path Node>,<Node Type>,<Node Count>,<Node Name>,<AirLoopHVAC Name>
   #Nodes on Return Air Path,2
   Return Air Path Node,Outlet Node,1,ZONE WAREHOUSE FINE C  - STORY GROUND PSZ-AC DEMAND OUTLET NODE,ZONE WAREHOUSE FINE C  - STORY GROUND PSZ-AC
   Return Air Path Node,Inlet Node,2,ZONE WAREHOUSE FINE C  - STORY GROUND RETURN AIR NODE,ZONE WAREHOUSE FINE C  - STORY GROUND PSZ-AC
 Return Air Path,6,ZONE WAREHOUSE FINE C END_B - STORY GROUND PSZ-AC RETURN PATH,ZONE WAREHOUSE FINE C END_B - STORY GROUND PSZ-AC
   #Components on Return Air Path,1
   Return Air Path Component,1,AIRLOOPHVAC:ZONEMIXER,AIR LOOP HVAC ZONE MIXER 6,ZONE WAREHOUSE FINE C END_B - STORY GROUND PSZ-AC
     #Inlet Nodes on Return Air Path Component,1
     Return Air Path Component Nodes,1,AIRLOOPHVAC:ZONEMIXER,AIR LOOP HVAC ZONE MIXER 6,ZONE WAREHOUSE FINE C END_B - STORY GROUND RETURN AIR NODE,ZONE WAREHOUSE FINE C END_B - STORY GROUND PSZ-AC DEMAND OUTLET NODE,ZONE WAREHOUSE FINE C END_B - STORY GROUND PSZ-AC
! <#Nodes on Return Air Path>,<Number of Nodes>
! <Return Air Path Node>,<Node Type>,<Node Count>,<Node Name>,<AirLoopHVAC Name>
   #Nodes on Return Air Path,2
   Return Air Path Node,Outlet Node,1,ZONE WAREHOUSE FINE C END_B - STORY GROUND PSZ-AC DEMAND OUTLET NODE,ZONE WAREHOUSE FINE C END_B - STORY GROUND PSZ-AC
   Return Air Path Node,Inlet Node,2,ZONE WAREHOUSE FINE C END_B - STORY GROUND RETURN AIR NODE,ZONE WAREHOUSE FINE C END_B - STORY GROUND PSZ-AC
 Return Air Path,7,ZONE WAREHOUSE OFFICE A  - STORY GROUND PSZ-AC RETURN PATH,ZONE WAREHOUSE OFFICE A  - STORY GROUND PSZ-AC
   #Components on Return Air Path,1
   Return Air Path Component,1,AIRLOOPHVAC:ZONEMIXER,AIR LOOP HVAC ZONE MIXER 7,ZONE WAREHOUSE OFFICE A  - STORY GROUND PSZ-AC
     #Inlet Nodes on Return Air Path Component,1
     Return Air Path Component Nodes,1,AIRLOOPHVAC:ZONEMIXER,AIR LOOP HVAC ZONE MIXER 7,ZONE WAREHOUSE OFFICE A  - STORY GROUND RETURN AIR NODE,ZONE WAREHOUSE OFFICE A  - STORY GROUND PSZ-AC DEMAND OUTLET NODE,ZONE WAREHOUSE OFFICE A  - STORY GROUND PSZ-AC
! <#Nodes on Return Air Path>,<Number of Nodes>
! <Return Air Path Node>,<Node Type>,<Node Count>,<Node Name>,<AirLoopHVAC Name>
   #Nodes on Return Air Path,2
   Return Air Path Node,Outlet Node,1,ZONE WAREHOUSE OFFICE A  - STORY GROUND PSZ-AC DEMAND OUTLET NODE,ZONE WAREHOUSE OFFICE A  - STORY GROUND PSZ-AC
   Return Air Path Node,Inlet Node,2,ZONE WAREHOUSE OFFICE A  - STORY GROUND RETURN AIR NODE,ZONE WAREHOUSE OFFICE A  - STORY GROUND PSZ-AC
 Return Air Path,8,ZONE WAREHOUSE OFFICE B  - STORY GROUND PSZ-AC RETURN PATH,ZONE WAREHOUSE OFFICE B  - STORY GROUND PSZ-AC
   #Components on Return Air Path,1
   Return Air Path Component,1,AIRLOOPHVAC:ZONEMIXER,AIR LOOP HVAC ZONE MIXER 8,ZONE WAREHOUSE OFFICE B  - STORY GROUND PSZ-AC
     #Inlet Nodes on Return Air Path Component,1
     Return Air Path Component Nodes,1,AIRLOOPHVAC:ZONEMIXER,AIR LOOP HVAC ZONE MIXER 8,ZONE WAREHOUSE OFFICE B  - STORY GROUND RETURN AIR NODE,ZONE WAREHOUSE OFFICE B  - STORY GROUND PSZ-AC DEMAND OUTLET NODE,ZONE WAREHOUSE OFFICE B  - STORY GROUND PSZ-AC
! <#Nodes on Return Air Path>,<Number of Nodes>
! <Return Air Path Node>,<Node Type>,<Node Count>,<Node Name>,<AirLoopHVAC Name>
   #Nodes on Return Air Path,2
   Return Air Path Node,Outlet Node,1,ZONE WAREHOUSE OFFICE B  - STORY GROUND PSZ-AC DEMAND OUTLET NODE,ZONE WAREHOUSE OFFICE B  - STORY GROUND PSZ-AC
   Return Air Path Node,Inlet Node,2,ZONE WAREHOUSE OFFICE B  - STORY GROUND RETURN AIR NODE,ZONE WAREHOUSE OFFICE B  - STORY GROUND PSZ-AC
 Return Air Path,9,ZONE WAREHOUSE OFFICE C  - STORY GROUND PSZ-AC RETURN PATH,ZONE WAREHOUSE OFFICE C  - STORY GROUND PSZ-AC
   #Components on Return Air Path,1
   Return Air Path Component,1,AIRLOOPHVAC:ZONEMIXER,AIR LOOP HVAC ZONE MIXER 9,ZONE WAREHOUSE OFFICE C  - STORY GROUND PSZ-AC
     #Inlet Nodes on Return Air Path Component,1
     Return Air Path Component Nodes,1,AIRLOOPHVAC:ZONEMIXER,AIR LOOP HVAC ZONE MIXER 9,ZONE WAREHOUSE OFFICE C  - STORY GROUND RETURN AIR NODE,ZONE WAREHOUSE OFFICE C  - STORY GROUND PSZ-AC DEMAND OUTLET NODE,ZONE WAREHOUSE OFFICE C  - STORY GROUND PSZ-AC
! <#Nodes on Return Air Path>,<Number of Nodes>
! <Return Air Path Node>,<Node Type>,<Node Count>,<Node Name>,<AirLoopHVAC Name>
   #Nodes on Return Air Path,2
   Return Air Path Node,Outlet Node,1,ZONE WAREHOUSE OFFICE C  - STORY GROUND PSZ-AC DEMAND OUTLET NODE,ZONE WAREHOUSE OFFICE C  - STORY GROUND PSZ-AC
   Return Air Path Node,Inlet Node,2,ZONE WAREHOUSE OFFICE C  - STORY GROUND RETURN AIR NODE,ZONE WAREHOUSE OFFICE C  - STORY GROUND PSZ-AC
! ===============================================================
! #Outdoor Air Nodes,<Number of Outdoor Air Nodes>
 #Outdoor Air Nodes,10
! <Outdoor Air Node>,<NodeNumber>,<Node Name>
 Outdoor Air Node,141,ZONE WAREHOUSE FINE A  - STORY GROUND PSZ-AC OUTDOOR AIR NODE
 Outdoor Air Node,142,ZONE WAREHOUSE FINE A END_B - STORY GROUND PSZ-AC OUTDOOR AIR NODE
 Outdoor Air Node,143,ZONE WAREHOUSE FINE B  - STORY GROUND PSZ-AC OUTDOOR AIR NODE
 Outdoor Air Node,144,ZONE WAREHOUSE FINE B END_B - STORY GROUND PSZ-AC OUTDOOR AIR NODE
 Outdoor Air Node,145,ZONE WAREHOUSE FINE C  - STORY GROUND PSZ-AC OUTDOOR AIR NODE
 Outdoor Air Node,146,ZONE WAREHOUSE FINE C END_B - STORY GROUND PSZ-AC OUTDOOR AIR NODE
 Outdoor Air Node,147,ZONE WAREHOUSE OFFICE A  - STORY GROUND PSZ-AC OUTDOOR AIR NODE
 Outdoor Air Node,148,ZONE WAREHOUSE OFFICE B  - STORY GROUND PSZ-AC OUTDOOR AIR NODE
 Outdoor Air Node,149,ZONE WAREHOUSE OFFICE C  - STORY GROUND PSZ-AC OUTDOOR AIR NODE
 Outdoor Air Node,150,MODEL OUTDOOR AIR NODE
! ===============================================================
! <#Component Sets>,<Number of Component Sets>
 #Component Sets,104
! <Component Set>,<Component Set Count>,<Parent Object Type>,<Parent Object Name>,<Component Type>,<Component Name>,<Inlet Node ID>,<Outlet Node ID>,<Description>
 Component Set,1,BRANCH,ZONE WAREHOUSE FINE A  - STORY GROUND PSZ-AC MAIN BRANCH,AIRLOOPHVAC:OUTDOORAIRSYSTEM,ZONE WAREHOUSE FINE A  - STORY GROUND PSZ-AC OA SYSTEM,ZONE WAREHOUSE FINE A  - STORY GROUND PSZ-AC SUPPLY INLET NODE,ZONE WAREHOUSE FINE A  - STORY GROUND PSZ-AC MIXED AIR NODE,Air Nodes
 Component Set,2,BRANCH,ZONE WAREHOUSE FINE A  - STORY GROUND PSZ-AC MAIN BRANCH,AIRLOOPHVAC:UNITARYSYSTEM,ZONE WAREHOUSE FINE A  - STORY GROUND PSZ-AC UNITARY AC,ZONE WAREHOUSE FINE A  - STORY GROUND PSZ-AC MIXED AIR NODE,ZONE WAREHOUSE FINE A  - STORY GROUND PSZ-AC SUPPLY OUTLET NODE,Air Nodes
 Component Set,3,BRANCH,ZONE WAREHOUSE FINE A END_B - STORY GROUND PSZ-AC MAIN BRANCH,AIRLOOPHVAC:OUTDOORAIRSYSTEM,ZONE WAREHOUSE FINE A END_B - STORY GROUND PSZ-AC OA SYSTEM,ZONE WAREHOUSE FINE A END_B - STORY GROUND PSZ-AC SUPPLY INLET NODE,ZONE WAREHOUSE FINE A END_B - STORY GROUND PSZ-AC MIXED AIR NODE,Air Nodes
 Component Set,4,BRANCH,ZONE WAREHOUSE FINE A END_B - STORY GROUND PSZ-AC MAIN BRANCH,AIRLOOPHVAC:UNITARYSYSTEM,ZONE WAREHOUSE FINE A END_B - STORY GROUND PSZ-AC UNITARY AC,ZONE WAREHOUSE FINE A END_B - STORY GROUND PSZ-AC MIXED AIR NODE,ZONE WAREHOUSE FINE A END_B - STORY GROUND PSZ-AC SUPPLY OUTLET NODE,Air Nodes
 Component Set,5,BRANCH,ZONE WAREHOUSE FINE B  - STORY GROUND PSZ-AC MAIN BRANCH,AIRLOOPHVAC:OUTDOORAIRSYSTEM,ZONE WAREHOUSE FINE B  - STORY GROUND PSZ-AC OA SYSTEM,ZONE WAREHOUSE FINE B  - STORY GROUND PSZ-AC SUPPLY INLET NODE,ZONE WAREHOUSE FINE B  - STORY GROUND PSZ-AC MIXED AIR NODE,Air Nodes
 Component Set,6,BRANCH,ZONE WAREHOUSE FINE B  - STORY GROUND PSZ-AC MAIN BRANCH,AIRLOOPHVAC:UNITARYSYSTEM,ZONE WAREHOUSE FINE B  - STORY GROUND PSZ-AC UNITARY AC,ZONE WAREHOUSE FINE B  - STORY GROUND PSZ-AC MIXED AIR NODE,ZONE WAREHOUSE FINE B  - STORY GROUND PSZ-AC SUPPLY OUTLET NODE,Air Nodes
 Component Set,7,BRANCH,ZONE WAREHOUSE FINE B END_B - STORY GROUND PSZ-AC MAIN BRANCH,AIRLOOPHVAC:OUTDOORAIRSYSTEM,ZONE WAREHOUSE FINE B END_B - STORY GROUND PSZ-AC OA SYSTEM,ZONE WAREHOUSE FINE B END_B - STORY GROUND PSZ-AC SUPPLY INLET NODE,ZONE WAREHOUSE FINE B END_B - STORY GROUND PSZ-AC MIXED AIR NODE,Air Nodes
 Component Set,8,BRANCH,ZONE WAREHOUSE FINE B END_B - STORY GROUND PSZ-AC MAIN BRANCH,AIRLOOPHVAC:UNITARYSYSTEM,ZONE WAREHOUSE FINE B END_B - STORY GROUND PSZ-AC UNITARY AC,ZONE WAREHOUSE FINE B END_B - STORY GROUND PSZ-AC MIXED AIR NODE,ZONE WAREHOUSE FINE B END_B - STORY GROUND PSZ-AC SUPPLY OUTLET NODE,Air Nodes
 Component Set,9,BRANCH,ZONE WAREHOUSE FINE C  - STORY GROUND PSZ-AC MAIN BRANCH,AIRLOOPHVAC:OUTDOORAIRSYSTEM,ZONE WAREHOUSE FINE C  - STORY GROUND PSZ-AC OA SYSTEM,ZONE WAREHOUSE FINE C  - STORY GROUND PSZ-AC SUPPLY INLET NODE,ZONE WAREHOUSE FINE C  - STORY GROUND PSZ-AC MIXED AIR NODE,Air Nodes
 Component Set,10,BRANCH,ZONE WAREHOUSE FINE C  - STORY GROUND PSZ-AC MAIN BRANCH,AIRLOOPHVAC:UNITARYSYSTEM,ZONE WAREHOUSE FINE C  - STORY GROUND PSZ-AC UNITARY AC,ZONE WAREHOUSE FINE C  - STORY GROUND PSZ-AC MIXED AIR NODE,ZONE WAREHOUSE FINE C  - STORY GROUND PSZ-AC SUPPLY OUTLET NODE,Air Nodes
 Component Set,11,BRANCH,ZONE WAREHOUSE FINE C END_B - STORY GROUND PSZ-AC MAIN BRANCH,AIRLOOPHVAC:OUTDOORAIRSYSTEM,ZONE WAREHOUSE FINE C END_B - STORY GROUND PSZ-AC OA SYSTEM,ZONE WAREHOUSE FINE C END_B - STORY GROUND PSZ-AC SUPPLY INLET NODE,ZONE WAREHOUSE FINE C END_B - STORY GROUND PSZ-AC MIXED AIR NODE,Air Nodes
 Component Set,12,BRANCH,ZONE WAREHOUSE FINE C END_B - STORY GROUND PSZ-AC MAIN BRANCH,AIRLOOPHVAC:UNITARYSYSTEM,ZONE WAREHOUSE FINE C END_B - STORY GROUND PSZ-AC UNITARY AC,ZONE WAREHOUSE FINE C END_B - STORY GROUND PSZ-AC MIXED AIR NODE,ZONE WAREHOUSE FINE C END_B - STORY GROUND PSZ-AC SUPPLY OUTLET NODE,Air Nodes
 Component Set,13,BRANCH,ZONE WAREHOUSE OFFICE A  - STORY GROUND PSZ-AC MAIN BRANCH,AIRLOOPHVAC:OUTDOORAIRSYSTEM,ZONE WAREHOUSE OFFICE A  - STORY GROUND PSZ-AC OA SYSTEM,ZONE WAREHOUSE OFFICE A  - STORY GROUND PSZ-AC SUPPLY INLET NODE,ZONE WAREHOUSE OFFICE A  - STORY GROUND PSZ-AC MIXED AIR NODE,Air Nodes
 Component Set,14,BRANCH,ZONE WAREHOUSE OFFICE A  - STORY GROUND PSZ-AC MAIN BRANCH,AIRLOOPHVAC:UNITARYSYSTEM,ZONE WAREHOUSE OFFICE A  - STORY GROUND PSZ-AC UNITARY AC,ZONE WAREHOUSE OFFICE A  - STORY GROUND PSZ-AC MIXED AIR NODE,ZONE WAREHOUSE OFFICE A  - STORY GROUND PSZ-AC SUPPLY OUTLET NODE,Air Nodes
 Component Set,15,BRANCH,ZONE WAREHOUSE OFFICE B  - STORY GROUND PSZ-AC MAIN BRANCH,AIRLOOPHVAC:OUTDOORAIRSYSTEM,ZONE WAREHOUSE OFFICE B  - STORY GROUND PSZ-AC OA SYSTEM,ZONE WAREHOUSE OFFICE B  - STORY GROUND PSZ-AC SUPPLY INLET NODE,ZONE WAREHOUSE OFFICE B  - STORY GROUND PSZ-AC MIXED AIR NODE,Air Nodes
 Component Set,16,BRANCH,ZONE WAREHOUSE OFFICE B  - STORY GROUND PSZ-AC MAIN BRANCH,AIRLOOPHVAC:UNITARYSYSTEM,ZONE WAREHOUSE OFFICE B  - STORY GROUND PSZ-AC UNITARY AC,ZONE WAREHOUSE OFFICE B  - STORY GROUND PSZ-AC MIXED AIR NODE,ZONE WAREHOUSE OFFICE B  - STORY GROUND PSZ-AC SUPPLY OUTLET NODE,Air Nodes
 Component Set,17,BRANCH,ZONE WAREHOUSE OFFICE C  - STORY GROUND PSZ-AC MAIN BRANCH,AIRLOOPHVAC:OUTDOORAIRSYSTEM,ZONE WAREHOUSE OFFICE C  - STORY GROUND PSZ-AC OA SYSTEM,ZONE WAREHOUSE OFFICE C  - STORY GROUND PSZ-AC SUPPLY INLET NODE,ZONE WAREHOUSE OFFICE C  - STORY GROUND PSZ-AC MIXED AIR NODE,Air Nodes
 Component Set,18,BRANCH,ZONE WAREHOUSE OFFICE C  - STORY GROUND PSZ-AC MAIN BRANCH,AIRLOOPHVAC:UNITARYSYSTEM,ZONE WAREHOUSE OFFICE C  - STORY GROUND PSZ-AC UNITARY AC,ZONE WAREHOUSE OFFICE C  - STORY GROUND PSZ-AC MIXED AIR NODE,ZONE WAREHOUSE OFFICE C  - STORY GROUND PSZ-AC SUPPLY OUTLET NODE,Air Nodes
 Component Set,19,BRANCH,HOT WATER LOOP SUPPLY INLET BRANCH,PUMP:VARIABLESPEED,HOT WATER LOOP PUMP,HOT WATER LOOP SUPPLY INLET NODE,HOT WATER LOOP PUMP OUTLET WATER NODE,Water Nodes
 Component Set,20,BRANCH,HOT WATER LOOP SUPPLY BRANCH 1,DISTRICTHEATING,HOT WATER LOOP DISTRICT HEATING,HOT WATER LOOP DISTRICT HEATING INLET WATER NODE,HOT WATER LOOP DISTRICT HEATING OUTLET WATER NODE,Hot Water Nodes
 Component Set,21,BRANCH,HOT WATER LOOP SUPPLY BRANCH 2,PIPE:ADIABATIC,HOT WATER LOOP SUPPLY EQUIPMENT BYPASS,HOT WATER LOOP SUPPLY EQUIPMENT BYPASS INLET WATER NODE,HOT WATER LOOP SUPPLY EQUIPMENT BYPASS OUTLET WATER NODE,Pipe Nodes
 Component Set,22,BRANCH,HOT WATER LOOP SUPPLY OUTLET BRANCH,PIPE:ADIABATIC,HOT WATER LOOP SUPPLY OUTLET,HOT WATER LOOP SUPPLY OUTLET INLET WATER NODE,HOT WATER LOOP SUPPLY OUTLET NODE,Pipe Nodes
 Component Set,23,BRANCH,HOT WATER LOOP DEMAND INLET BRANCH,PIPE:ADIABATIC,HOT WATER LOOP DEMAND INLET,HOT WATER LOOP DEMAND INLET NODE,HOT WATER LOOP DEMAND INLET OUTLET WATER NODE,Pipe Nodes
 Component Set,24,BRANCH,HOT WATER LOOP DEMAND BRANCH 1,PIPE:ADIABATIC,HOT WATER LOOP COIL BYPASS,HOT WATER LOOP COIL BYPASS INLET WATER NODE,HOT WATER LOOP COIL BYPASS OUTLET WATER NODE,Pipe Nodes
 Component Set,25,BRANCH,HOT WATER LOOP DEMAND BRANCH 2,COIL:HEATING:WATER,ZONE WAREHOUSE FINE A  - STORY GROUND PSZ-AC WATER HTG COIL,ZONE WAREHOUSE FINE A  - STORY GROUND PSZ-AC WATER HTG COIL INLET WATER NODE,ZONE WAREHOUSE FINE A  - STORY GROUND PSZ-AC WATER HTG COIL OUTLET WATER NODE,Water Nodes
 Component Set,26,BRANCH,HOT WATER LOOP DEMAND BRANCH 3,COIL:HEATING:WATER,ZONE WAREHOUSE FINE A END_B - STORY GROUND PSZ-AC WATER HTG COIL,ZONE WAREHOUSE FINE A END_B - STORY GROUND PSZ-AC WATER HTG COIL INLET WATER NODE,ZONE WAREHOUSE FINE A END_B - STORY GROUND PSZ-AC WATER HTG COIL OUTLET WATER NODE,Water Nodes
 Component Set,27,BRANCH,HOT WATER LOOP DEMAND BRANCH 4,COIL:HEATING:WATER,ZONE WAREHOUSE FINE B  - STORY GROUND PSZ-AC WATER HTG COIL,ZONE WAREHOUSE FINE B  - STORY GROUND PSZ-AC WATER HTG COIL INLET WATER NODE,ZONE WAREHOUSE FINE B  - STORY GROUND PSZ-AC WATER HTG COIL OUTLET WATER NODE,Water Nodes
 Component Set,28,BRANCH,HOT WATER LOOP DEMAND BRANCH 5,COIL:HEATING:WATER,ZONE WAREHOUSE FINE B END_B - STORY GROUND PSZ-AC WATER HTG COIL,ZONE WAREHOUSE FINE B END_B - STORY GROUND PSZ-AC WATER HTG COIL INLET WATER NODE,ZONE WAREHOUSE FINE B END_B - STORY GROUND PSZ-AC WATER HTG COIL OUTLET WATER NODE,Water Nodes
 Component Set,29,BRANCH,HOT WATER LOOP DEMAND BRANCH 6,COIL:HEATING:WATER,ZONE WAREHOUSE FINE C  - STORY GROUND PSZ-AC WATER HTG COIL,ZONE WAREHOUSE FINE C  - STORY GROUND PSZ-AC WATER HTG COIL INLET WATER NODE,ZONE WAREHOUSE FINE C  - STORY GROUND PSZ-AC WATER HTG COIL OUTLET WATER NODE,Water Nodes
 Component Set,30,BRANCH,HOT WATER LOOP DEMAND BRANCH 7,COIL:HEATING:WATER,ZONE WAREHOUSE FINE C END_B - STORY GROUND PSZ-AC WATER HTG COIL,ZONE WAREHOUSE FINE C END_B - STORY GROUND PSZ-AC WATER HTG COIL INLET WATER NODE,ZONE WAREHOUSE FINE C END_B - STORY GROUND PSZ-AC WATER HTG COIL OUTLET WATER NODE,Water Nodes
 Component Set,31,BRANCH,HOT WATER LOOP DEMAND BRANCH 8,COIL:HEATING:WATER,ZONE WAREHOUSE OFFICE A  - STORY GROUND PSZ-AC WATER HTG COIL,ZONE WAREHOUSE OFFICE A  - STORY GROUND PSZ-AC WATER HTG COIL INLET WATER NODE,ZONE WAREHOUSE OFFICE A  - STORY GROUND PSZ-AC WATER HTG COIL OUTLET WATER NODE,Water Nodes
 Component Set,32,BRANCH,HOT WATER LOOP DEMAND BRANCH 9,COIL:HEATING:WATER,ZONE WAREHOUSE OFFICE B  - STORY GROUND PSZ-AC WATER HTG COIL,ZONE WAREHOUSE OFFICE B  - STORY GROUND PSZ-AC WATER HTG COIL INLET WATER NODE,ZONE WAREHOUSE OFFICE B  - STORY GROUND PSZ-AC WATER HTG COIL OUTLET WATER NODE,Water Nodes
 Component Set,33,BRANCH,HOT WATER LOOP DEMAND BRANCH 10,COIL:HEATING:WATER,ZONE WAREHOUSE OFFICE C  - STORY GROUND PSZ-AC WATER HTG COIL,ZONE WAREHOUSE OFFICE C  - STORY GROUND PSZ-AC WATER HTG COIL INLET WATER NODE,ZONE WAREHOUSE OFFICE C  - STORY GROUND PSZ-AC WATER HTG COIL OUTLET WATER NODE,Water Nodes
 Component Set,34,BRANCH,HOT WATER LOOP DEMAND BRANCH 11,ZONEHVAC:BASEBOARD:CONVECTIVE:WATER,ZONE WAREHOUSE BULK A  - STORY GROUND HYDRONIC BASEBOARD,ZONE WAREHOUSE BULK A  - STORY GROUND HYDRONIC BASEBOARD COIL INLET WATER NODE,ZONE WAREHOUSE BULK A  - STORY GROUND HYDRONIC BASEBOARD COIL OUTLET WATER NODE,Hot Water Nodes
 Component Set,35,BRANCH,HOT WATER LOOP DEMAND BRANCH 12,ZONEHVAC:BASEBOARD:CONVECTIVE:WATER,ZONE WAREHOUSE BULK A END_A - STORY GROUND HYDRONIC BASEBOARD,ZONE WAREHOUSE BULK A END_A - STORY GROUND HYDRONIC BASEBOARD COIL INLET WATER NODE,ZONE WAREHOUSE BULK A END_A - STORY GROUND HYDRONIC BASEBOARD COIL OUTLET WATER NODE,Hot Water Nodes
 Component Set,36,BRANCH,HOT WATER LOOP DEMAND BRANCH 13,ZONEHVAC:BASEBOARD:CONVECTIVE:WATER,ZONE WAREHOUSE BULK B  - STORY GROUND HYDRONIC BASEBOARD,ZONE WAREHOUSE BULK B  - STORY GROUND HYDRONIC BASEBOARD COIL INLET WATER NODE,ZONE WAREHOUSE BULK B  - STORY GROUND HYDRONIC BASEBOARD COIL OUTLET WATER NODE,Hot Water Nodes
 Component Set,37,BRANCH,HOT WATER LOOP DEMAND BRANCH 14,ZONEHVAC:BASEBOARD:CONVECTIVE:WATER,ZONE WAREHOUSE BULK B END_A - STORY GROUND HYDRONIC BASEBOARD,ZONE WAREHOUSE BULK B END_A - STORY GROUND HYDRONIC BASEBOARD COIL INLET WATER NODE,ZONE WAREHOUSE BULK B END_A - STORY GROUND HYDRONIC BASEBOARD COIL OUTLET WATER NODE,Hot Water Nodes
 Component Set,38,BRANCH,HOT WATER LOOP DEMAND BRANCH 15,ZONEHVAC:BASEBOARD:CONVECTIVE:WATER,ZONE WAREHOUSE BULK C  - STORY GROUND HYDRONIC BASEBOARD,ZONE WAREHOUSE BULK C  - STORY GROUND HYDRONIC BASEBOARD COIL INLET WATER NODE,ZONE WAREHOUSE BULK C  - STORY GROUND HYDRONIC BASEBOARD COIL OUTLET WATER NODE,Hot Water Nodes
 Component Set,39,BRANCH,HOT WATER LOOP DEMAND BRANCH 16,ZONEHVAC:BASEBOARD:CONVECTIVE:WATER,ZONE WAREHOUSE BULK C END_A - STORY GROUND HYDRONIC BASEBOARD,ZONE WAREHOUSE BULK C END_A - STORY GROUND HYDRONIC BASEBOARD COIL INLET WATER NODE,ZONE WAREHOUSE BULK C END_A - STORY GROUND HYDRONIC BASEBOARD COIL OUTLET WATER NODE,Hot Water Nodes
 Component Set,40,BRANCH,HOT WATER LOOP DEMAND BYPASS BRANCH,PIPE:ADIABATIC,HOT WATER LOOP DEMAND BYPASS PIPE,HOT WATER LOOP DEMAND BYPASS PIPE INLET NODE,HOT WATER LOOP DEMAND BYPASS PIPE OUTLET NODE,Pipe Nodes
 Component Set,41,BRANCH,HOT WATER LOOP DEMAND OUTLET BRANCH,PIPE:ADIABATIC,HOT WATER LOOP DEMAND OUTLET,HOT WATER LOOP DEMAND OUTLET INLET WATER NODE,HOT WATER LOOP DEMAND OUTLET NODE,Pipe Nodes
 Component Set,42,BRANCH,MAIN SERVICE WATER LOOP SUPPLY INLET BRANCH,PUMP:VARIABLESPEED,MAIN SERVICE WATER LOOP WATER MAINS PRESSURE DRIVEN,MAIN SERVICE WATER LOOP SUPPLY INLET NODE,MAIN SERVICE WATER LOOP WATER MAINS PRESSURE DRIVEN OUTLET WATER NODE,Water Nodes
 Component Set,43,BRANCH,MAIN SERVICE WATER LOOP SUPPLY BRANCH 1,WATERHEATER:MIXED,40GAL ELECTRICITY WATER HEATER - 40KBTU/HR 1.0 THERM EFF 1.0 THERM EFF,40GAL ELECTRICITY WATER HEATER - 40KBTU/HR 1.0 THERM EFF SUPPLY INLET WATER NODE,40GAL ELECTRICITY WATER HEATER - 40KBTU/HR 1.0 THERM EFF SUPPLY OUTLET WATER NODE,Use Side Water Nodes
 Component Set,44,BRANCH,MAIN SERVICE WATER LOOP SUPPLY BRANCH 2,PIPE:ADIABATIC,PIPE ADIABATIC 1,PIPE ADIABATIC 1 INLET WATER NODE,PIPE ADIABATIC 1 OUTLET WATER NODE,Pipe Nodes
 Component Set,45,BRANCH,MAIN SERVICE WATER LOOP SUPPLY OUTLET BRANCH,PIPE:ADIABATIC,PIPE ADIABATIC 3,PIPE ADIABATIC 3 INLET WATER NODE,MAIN SERVICE WATER LOOP SUPPLY OUTLET NODE,Pipe Nodes
 Component Set,46,BRANCH,MAIN SERVICE WATER LOOP DEMAND INLET BRANCH,PIPE:ADIABATIC,MAIN SERVICE WATER LOOP DEMAND INLET PIPE,MAIN SERVICE WATER LOOP DEMAND INLET NODE,MAIN SERVICE WATER LOOP DEMAND INLET PIPE NODE,Pipe Nodes
 Component Set,47,BRANCH,MAIN SERVICE WATER LOOP DEMAND BRANCH 1,PIPE:ADIABATIC,PIPE ADIABATIC 2,PIPE ADIABATIC 2 INLET WATER NODE,PIPE ADIABATIC 2 OUTLET WATER NODE,Pipe Nodes
 Component Set,48,BRANCH,MAIN SERVICE WATER LOOP DEMAND BYPASS BRANCH,PIPE:ADIABATIC,MAIN SERVICE WATER LOOP DEMAND BYPASS PIPE,MAIN SERVICE WATER LOOP DEMAND BYPASS PIPE INLET NODE,MAIN SERVICE WATER LOOP DEMAND BYPASS PIPE OUTLET NODE,Pipe Nodes
 Component Set,49,BRANCH,MAIN SERVICE WATER LOOP DEMAND OUTLET BRANCH,PIPE:ADIABATIC,PIPE ADIABATIC 4,PIPE ADIABATIC 4 INLET WATER NODE,MAIN SERVICE WATER LOOP DEMAND OUTLET NODE,Pipe Nodes
 Component Set,50,ZONEHVAC:AIRDISTRIBUTIONUNIT,ADU ZONE WAREHOUSE FINE A  - STORY GROUND PSZ-AC DIFFUSER,AIRTERMINAL:SINGLEDUCT:CONSTANTVOLUME:NOREHEAT,ZONE WAREHOUSE FINE A  - STORY GROUND PSZ-AC DIFFUSER,ZONE WAREHOUSE FINE A  - STORY GROUND PSZ-AC DIFFUSER INLET AIR NODE,ZONE WAREHOUSE FINE A  - STORY GROUND PSZ-AC DIFFUSER OUTLET AIR NODE,Air Nodes
 Component Set,51,ZONEHVAC:AIRDISTRIBUTIONUNIT,ADU ZONE WAREHOUSE FINE A END_B - STORY GROUND PSZ-AC DIFFUSER,AIRTERMINAL:SINGLEDUCT:CONSTANTVOLUME:NOREHEAT,ZONE WAREHOUSE FINE A END_B - STORY GROUND PSZ-AC DIFFUSER,ZONE WAREHOUSE FINE A END_B - STORY GROUND PSZ-AC DIFFUSER INLET AIR NODE,ZONE WAREHOUSE FINE A END_B - STORY GROUND PSZ-AC DIFFUSER OUTLET AIR NODE,Air Nodes
 Component Set,52,ZONEHVAC:AIRDISTRIBUTIONUNIT,ADU ZONE WAREHOUSE FINE B  - STORY GROUND PSZ-AC DIFFUSER,AIRTERMINAL:SINGLEDUCT:CONSTANTVOLUME:NOREHEAT,ZONE WAREHOUSE FINE B  - STORY GROUND PSZ-AC DIFFUSER,ZONE WAREHOUSE FINE B  - STORY GROUND PSZ-AC DIFFUSER INLET AIR NODE,ZONE WAREHOUSE FINE B  - STORY GROUND PSZ-AC DIFFUSER OUTLET AIR NODE,Air Nodes
 Component Set,53,ZONEHVAC:AIRDISTRIBUTIONUNIT,ADU ZONE WAREHOUSE FINE B END_B - STORY GROUND PSZ-AC DIFFUSER,AIRTERMINAL:SINGLEDUCT:CONSTANTVOLUME:NOREHEAT,ZONE WAREHOUSE FINE B END_B - STORY GROUND PSZ-AC DIFFUSER,ZONE WAREHOUSE FINE B END_B - STORY GROUND PSZ-AC DIFFUSER INLET AIR NODE,ZONE WAREHOUSE FINE B END_B - STORY GROUND PSZ-AC DIFFUSER OUTLET AIR NODE,Air Nodes
 Component Set,54,ZONEHVAC:AIRDISTRIBUTIONUNIT,ADU ZONE WAREHOUSE FINE C  - STORY GROUND PSZ-AC DIFFUSER,AIRTERMINAL:SINGLEDUCT:CONSTANTVOLUME:NOREHEAT,ZONE WAREHOUSE FINE C  - STORY GROUND PSZ-AC DIFFUSER,ZONE WAREHOUSE FINE C  - STORY GROUND PSZ-AC DIFFUSER INLET AIR NODE,ZONE WAREHOUSE FINE C  - STORY GROUND PSZ-AC DIFFUSER OUTLET AIR NODE,Air Nodes
 Component Set,55,ZONEHVAC:AIRDISTRIBUTIONUNIT,ADU ZONE WAREHOUSE FINE C END_B - STORY GROUND PSZ-AC DIFFUSER,AIRTERMINAL:SINGLEDUCT:CONSTANTVOLUME:NOREHEAT,ZONE WAREHOUSE FINE C END_B - STORY GROUND PSZ-AC DIFFUSER,ZONE WAREHOUSE FINE C END_B - STORY GROUND PSZ-AC DIFFUSER INLET AIR NODE,ZONE WAREHOUSE FINE C END_B - STORY GROUND PSZ-AC DIFFUSER OUTLET AIR NODE,Air Nodes
 Component Set,56,ZONEHVAC:AIRDISTRIBUTIONUNIT,ADU ZONE WAREHOUSE OFFICE A  - STORY GROUND PSZ-AC DIFFUSER,AIRTERMINAL:SINGLEDUCT:CONSTANTVOLUME:NOREHEAT,ZONE WAREHOUSE OFFICE A  - STORY GROUND PSZ-AC DIFFUSER,ZONE WAREHOUSE OFFICE A  - STORY GROUND PSZ-AC DIFFUSER INLET AIR NODE,ZONE WAREHOUSE OFFICE A  - STORY GROUND PSZ-AC DIFFUSER OUTLET AIR NODE,Air Nodes
 Component Set,57,ZONEHVAC:AIRDISTRIBUTIONUNIT,ADU ZONE WAREHOUSE OFFICE B  - STORY GROUND PSZ-AC DIFFUSER,AIRTERMINAL:SINGLEDUCT:CONSTANTVOLUME:NOREHEAT,ZONE WAREHOUSE OFFICE B  - STORY GROUND PSZ-AC DIFFUSER,ZONE WAREHOUSE OFFICE B  - STORY GROUND PSZ-AC DIFFUSER INLET AIR NODE,ZONE WAREHOUSE OFFICE B  - STORY GROUND PSZ-AC DIFFUSER OUTLET AIR NODE,Air Nodes
 Component Set,58,ZONEHVAC:AIRDISTRIBUTIONUNIT,ADU ZONE WAREHOUSE OFFICE C  - STORY GROUND PSZ-AC DIFFUSER,AIRTERMINAL:SINGLEDUCT:CONSTANTVOLUME:NOREHEAT,ZONE WAREHOUSE OFFICE C  - STORY GROUND PSZ-AC DIFFUSER,ZONE WAREHOUSE OFFICE C  - STORY GROUND PSZ-AC DIFFUSER INLET AIR NODE,ZONE WAREHOUSE OFFICE C  - STORY GROUND PSZ-AC DIFFUSER OUTLET AIR NODE,Air Nodes
 Component Set,59,AIRLOOPHVAC:OUTDOORAIRSYSTEM,ZONE WAREHOUSE FINE A  - STORY GROUND PSZ-AC OA SYSTEM,OUTDOORAIR:MIXER,ZONE WAREHOUSE FINE A  - STORY GROUND PSZ-AC OA SYSTEM OUTDOOR AIR MIXER,ZONE WAREHOUSE FINE A  - STORY GROUND PSZ-AC OUTDOOR AIR NODE,ZONE WAREHOUSE FINE A  - STORY GROUND PSZ-AC MIXED AIR NODE,Air Nodes
 Component Set,60,AIRLOOPHVAC:OUTDOORAIRSYSTEM,ZONE WAREHOUSE FINE A END_B - STORY GROUND PSZ-AC OA SYSTEM,OUTDOORAIR:MIXER,ZONE WAREHOUSE FINE A END_B - STORY GROUND PSZ-AC OA SYSTEM OUTDOOR AIR MIXER,ZONE WAREHOUSE FINE A END_B - STORY GROUND PSZ-AC OUTDOOR AIR NODE,ZONE WAREHOUSE FINE A END_B - STORY GROUND PSZ-AC MIXED AIR NODE,Air Nodes
 Component Set,61,AIRLOOPHVAC:OUTDOORAIRSYSTEM,ZONE WAREHOUSE FINE B  - STORY GROUND PSZ-AC OA SYSTEM,OUTDOORAIR:MIXER,ZONE WAREHOUSE FINE B  - STORY GROUND PSZ-AC OA SYSTEM OUTDOOR AIR MIXER,NODE 2,ZONE WAREHOUSE FINE B  - STORY GROUND PSZ-AC MIXED AIR NODE,Air Nodes
 Component Set,62,AIRLOOPHVAC:OUTDOORAIRSYSTEM,ZONE WAREHOUSE FINE B  - STORY GROUND PSZ-AC OA SYSTEM,HEATEXCHANGER:AIRTOAIR:SENSIBLEANDLATENT,ZONE WAREHOUSE FINE B  - STORY GROUND PSZ-AC ERV,ZONE WAREHOUSE FINE B  - STORY GROUND PSZ-AC OUTDOOR AIR NODE,NODE 2,Process Air Nodes
 Component Set,63,AIRLOOPHVAC:OUTDOORAIRSYSTEM,ZONE WAREHOUSE FINE B END_B - STORY GROUND PSZ-AC OA SYSTEM,OUTDOORAIR:MIXER,ZONE WAREHOUSE FINE B END_B - STORY GROUND PSZ-AC OA SYSTEM OUTDOOR AIR MIXER,ZONE WAREHOUSE FINE B END_B - STORY GROUND PSZ-AC OUTDOOR AIR NODE,ZONE WAREHOUSE FINE B END_B - STORY GROUND PSZ-AC MIXED AIR NODE,Air Nodes
 Component Set,64,AIRLOOPHVAC:OUTDOORAIRSYSTEM,ZONE WAREHOUSE FINE C  - STORY GROUND PSZ-AC OA SYSTEM,OUTDOORAIR:MIXER,ZONE WAREHOUSE FINE C  - STORY GROUND PSZ-AC OA SYSTEM OUTDOOR AIR MIXER,ZONE WAREHOUSE FINE C  - STORY GROUND PSZ-AC OUTDOOR AIR NODE,ZONE WAREHOUSE FINE C  - STORY GROUND PSZ-AC MIXED AIR NODE,Air Nodes
 Component Set,65,AIRLOOPHVAC:OUTDOORAIRSYSTEM,ZONE WAREHOUSE FINE C END_B - STORY GROUND PSZ-AC OA SYSTEM,OUTDOORAIR:MIXER,ZONE WAREHOUSE FINE C END_B - STORY GROUND PSZ-AC OA SYSTEM OUTDOOR AIR MIXER,ZONE WAREHOUSE FINE C END_B - STORY GROUND PSZ-AC OUTDOOR AIR NODE,ZONE WAREHOUSE FINE C END_B - STORY GROUND PSZ-AC MIXED AIR NODE,Air Nodes
 Component Set,66,AIRLOOPHVAC:OUTDOORAIRSYSTEM,ZONE WAREHOUSE OFFICE A  - STORY GROUND PSZ-AC OA SYSTEM,OUTDOORAIR:MIXER,ZONE WAREHOUSE OFFICE A  - STORY GROUND PSZ-AC OA SYSTEM OUTDOOR AIR MIXER,ZONE WAREHOUSE OFFICE A  - STORY GROUND PSZ-AC OUTDOOR AIR NODE,ZONE WAREHOUSE OFFICE A  - STORY GROUND PSZ-AC MIXED AIR NODE,Air Nodes
 Component Set,67,AIRLOOPHVAC:OUTDOORAIRSYSTEM,ZONE WAREHOUSE OFFICE B  - STORY GROUND PSZ-AC OA SYSTEM,OUTDOORAIR:MIXER,ZONE WAREHOUSE OFFICE B  - STORY GROUND PSZ-AC OA SYSTEM OUTDOOR AIR MIXER,ZONE WAREHOUSE OFFICE B  - STORY GROUND PSZ-AC OUTDOOR AIR NODE,ZONE WAREHOUSE OFFICE B  - STORY GROUND PSZ-AC MIXED AIR NODE,Air Nodes
 Component Set,68,AIRLOOPHVAC:OUTDOORAIRSYSTEM,ZONE WAREHOUSE OFFICE C  - STORY GROUND PSZ-AC OA SYSTEM,OUTDOORAIR:MIXER,ZONE WAREHOUSE OFFICE C  - STORY GROUND PSZ-AC OA SYSTEM OUTDOOR AIR MIXER,ZONE WAREHOUSE OFFICE C  - STORY GROUND PSZ-AC OUTDOOR AIR NODE,ZONE WAREHOUSE OFFICE C  - STORY GROUND PSZ-AC MIXED AIR NODE,Air Nodes
 Component Set,69,AIRLOOPHVAC:UNITARYSYSTEM,ZONE WAREHOUSE FINE A  - STORY GROUND PSZ-AC UNITARY AC,FAN:ONOFF,ZONE WAREHOUSE FINE A  - STORY GROUND PSZ-AC FAN,ZONE WAREHOUSE FINE A  - STORY GROUND PSZ-AC UNITARY AC HEATING COIL - FAN NODE,ZONE WAREHOUSE FINE A  - STORY GROUND PSZ-AC UNITARY AC FAN - SUPPLEMENTAL COIL NODE,Air Nodes
 Component Set,70,AIRLOOPHVAC:UNITARYSYSTEM,ZONE WAREHOUSE FINE A END_B - STORY GROUND PSZ-AC UNITARY AC,FAN:ONOFF,ZONE WAREHOUSE FINE A END_B - STORY GROUND PSZ-AC FAN,ZONE WAREHOUSE FINE A END_B - STORY GROUND PSZ-AC UNITARY AC HEATING COIL - FAN NODE,ZONE WAREHOUSE FINE A END_B - STORY GROUND PSZ-AC UNITARY AC FAN - SUPPLEMENTAL COIL NODE,Air Nodes
 Component Set,71,AIRLOOPHVAC:UNITARYSYSTEM,ZONE WAREHOUSE FINE B  - STORY GROUND PSZ-AC UNITARY AC,FAN:ONOFF,ZONE WAREHOUSE FINE B  - STORY GROUND PSZ-AC FAN,ZONE WAREHOUSE FINE B  - STORY GROUND PSZ-AC UNITARY AC HEATING COIL - FAN NODE,ZONE WAREHOUSE FINE B  - STORY GROUND PSZ-AC UNITARY AC FAN - SUPPLEMENTAL COIL NODE,Air Nodes
 Component Set,72,AIRLOOPHVAC:UNITARYSYSTEM,ZONE WAREHOUSE FINE B END_B - STORY GROUND PSZ-AC UNITARY AC,FAN:ONOFF,ZONE WAREHOUSE FINE B END_B - STORY GROUND PSZ-AC FAN,ZONE WAREHOUSE FINE B END_B - STORY GROUND PSZ-AC UNITARY AC HEATING COIL - FAN NODE,ZONE WAREHOUSE FINE B END_B - STORY GROUND PSZ-AC UNITARY AC FAN - SUPPLEMENTAL COIL NODE,Air Nodes
 Component Set,73,AIRLOOPHVAC:UNITARYSYSTEM,ZONE WAREHOUSE FINE C  - STORY GROUND PSZ-AC UNITARY AC,FAN:ONOFF,ZONE WAREHOUSE FINE C  - STORY GROUND PSZ-AC FAN,ZONE WAREHOUSE FINE C  - STORY GROUND PSZ-AC UNITARY AC HEATING COIL - FAN NODE,ZONE WAREHOUSE FINE C  - STORY GROUND PSZ-AC UNITARY AC FAN - SUPPLEMENTAL COIL NODE,Air Nodes
 Component Set,74,AIRLOOPHVAC:UNITARYSYSTEM,ZONE WAREHOUSE FINE C END_B - STORY GROUND PSZ-AC UNITARY AC,FAN:ONOFF,ZONE WAREHOUSE FINE C END_B - STORY GROUND PSZ-AC FAN,ZONE WAREHOUSE FINE C END_B - STORY GROUND PSZ-AC UNITARY AC HEATING COIL - FAN NODE,ZONE WAREHOUSE FINE C END_B - STORY GROUND PSZ-AC UNITARY AC FAN - SUPPLEMENTAL COIL NODE,Air Nodes
 Component Set,75,AIRLOOPHVAC:UNITARYSYSTEM,ZONE WAREHOUSE OFFICE A  - STORY GROUND PSZ-AC UNITARY AC,FAN:ONOFF,ZONE WAREHOUSE OFFICE A  - STORY GROUND PSZ-AC FAN,ZONE WAREHOUSE OFFICE A  - STORY GROUND PSZ-AC UNITARY AC HEATING COIL - FAN NODE,ZONE WAREHOUSE OFFICE A  - STORY GROUND PSZ-AC UNITARY AC FAN - SUPPLEMENTAL COIL NODE,Air Nodes
 Component Set,76,AIRLOOPHVAC:UNITARYSYSTEM,ZONE WAREHOUSE OFFICE B  - STORY GROUND PSZ-AC UNITARY AC,FAN:ONOFF,ZONE WAREHOUSE OFFICE B  - STORY GROUND PSZ-AC FAN,ZONE WAREHOUSE OFFICE B  - STORY GROUND PSZ-AC UNITARY AC HEATING COIL - FAN NODE,ZONE WAREHOUSE OFFICE B  - STORY GROUND PSZ-AC UNITARY AC FAN - SUPPLEMENTAL COIL NODE,Air Nodes
 Component Set,77,AIRLOOPHVAC:UNITARYSYSTEM,ZONE WAREHOUSE OFFICE C  - STORY GROUND PSZ-AC UNITARY AC,FAN:ONOFF,ZONE WAREHOUSE OFFICE C  - STORY GROUND PSZ-AC FAN,ZONE WAREHOUSE OFFICE C  - STORY GROUND PSZ-AC UNITARY AC HEATING COIL - FAN NODE,ZONE WAREHOUSE OFFICE C  - STORY GROUND PSZ-AC UNITARY AC FAN - SUPPLEMENTAL COIL NODE,Air Nodes
 Component Set,78,AIRLOOPHVAC:UNITARYSYSTEM,ZONE WAREHOUSE FINE A  - STORY GROUND PSZ-AC UNITARY AC,COIL:HEATING:WATER,ZONE WAREHOUSE FINE A  - STORY GROUND PSZ-AC WATER HTG COIL,ZONE WAREHOUSE FINE A  - STORY GROUND PSZ-AC UNITARY AC COOLING COIL - HEATING COIL NODE,ZONE WAREHOUSE FINE A  - STORY GROUND PSZ-AC UNITARY AC HEATING COIL - FAN NODE,Air Nodes
 Component Set,79,AIRLOOPHVAC:UNITARYSYSTEM,ZONE WAREHOUSE FINE A END_B - STORY GROUND PSZ-AC UNITARY AC,COIL:HEATING:WATER,ZONE WAREHOUSE FINE A END_B - STORY GROUND PSZ-AC WATER HTG COIL,ZONE WAREHOUSE FINE A END_B - STORY GROUND PSZ-AC UNITARY AC COOLING COIL - HEATING COIL NODE,ZONE WAREHOUSE FINE A END_B - STORY GROUND PSZ-AC UNITARY AC HEATING COIL - FAN NODE,Air Nodes
 Component Set,80,AIRLOOPHVAC:UNITARYSYSTEM,ZONE WAREHOUSE FINE B  - STORY GROUND PSZ-AC UNITARY AC,COIL:HEATING:WATER,ZONE WAREHOUSE FINE B  - STORY GROUND PSZ-AC WATER HTG COIL,ZONE WAREHOUSE FINE B  - STORY GROUND PSZ-AC UNITARY AC COOLING COIL - HEATING COIL NODE,ZONE WAREHOUSE FINE B  - STORY GROUND PSZ-AC UNITARY AC HEATING COIL - FAN NODE,Air Nodes
 Component Set,81,AIRLOOPHVAC:UNITARYSYSTEM,ZONE WAREHOUSE FINE B END_B - STORY GROUND PSZ-AC UNITARY AC,COIL:HEATING:WATER,ZONE WAREHOUSE FINE B END_B - STORY GROUND PSZ-AC WATER HTG COIL,ZONE WAREHOUSE FINE B END_B - STORY GROUND PSZ-AC UNITARY AC COOLING COIL - HEATING COIL NODE,ZONE WAREHOUSE FINE B END_B - STORY GROUND PSZ-AC UNITARY AC HEATING COIL - FAN NODE,Air Nodes
 Component Set,82,AIRLOOPHVAC:UNITARYSYSTEM,ZONE WAREHOUSE FINE C  - STORY GROUND PSZ-AC UNITARY AC,COIL:HEATING:WATER,ZONE WAREHOUSE FINE C  - STORY GROUND PSZ-AC WATER HTG COIL,ZONE WAREHOUSE FINE C  - STORY GROUND PSZ-AC UNITARY AC COOLING COIL - HEATING COIL NODE,ZONE WAREHOUSE FINE C  - STORY GROUND PSZ-AC UNITARY AC HEATING COIL - FAN NODE,Air Nodes
 Component Set,83,AIRLOOPHVAC:UNITARYSYSTEM,ZONE WAREHOUSE FINE C END_B - STORY GROUND PSZ-AC UNITARY AC,COIL:HEATING:WATER,ZONE WAREHOUSE FINE C END_B - STORY GROUND PSZ-AC WATER HTG COIL,ZONE WAREHOUSE FINE C END_B - STORY GROUND PSZ-AC UNITARY AC COOLING COIL - HEATING COIL NODE,ZONE WAREHOUSE FINE C END_B - STORY GROUND PSZ-AC UNITARY AC HEATING COIL - FAN NODE,Air Nodes
 Component Set,84,AIRLOOPHVAC:UNITARYSYSTEM,ZONE WAREHOUSE OFFICE A  - STORY GROUND PSZ-AC UNITARY AC,COIL:HEATING:WATER,ZONE WAREHOUSE OFFICE A  - STORY GROUND PSZ-AC WATER HTG COIL,ZONE WAREHOUSE OFFICE A  - STORY GROUND PSZ-AC UNITARY AC COOLING COIL - HEATING COIL NODE,ZONE WAREHOUSE OFFICE A  - STORY GROUND PSZ-AC UNITARY AC HEATING COIL - FAN NODE,Air Nodes
 Component Set,85,AIRLOOPHVAC:UNITARYSYSTEM,ZONE WAREHOUSE OFFICE B  - STORY GROUND PSZ-AC UNITARY AC,COIL:HEATING:WATER,ZONE WAREHOUSE OFFICE B  - STORY GROUND PSZ-AC WATER HTG COIL,ZONE WAREHOUSE OFFICE B  - STORY GROUND PSZ-AC UNITARY AC COOLING COIL - HEATING COIL NODE,ZONE WAREHOUSE OFFICE B  - STORY GROUND PSZ-AC UNITARY AC HEATING COIL - FAN NODE,Air Nodes
 Component Set,86,AIRLOOPHVAC:UNITARYSYSTEM,ZONE WAREHOUSE OFFICE C  - STORY GROUND PSZ-AC UNITARY AC,COIL:HEATING:WATER,ZONE WAREHOUSE OFFICE C  - STORY GROUND PSZ-AC WATER HTG COIL,ZONE WAREHOUSE OFFICE C  - STORY GROUND PSZ-AC UNITARY AC COOLING COIL - HEATING COIL NODE,ZONE WAREHOUSE OFFICE C  - STORY GROUND PSZ-AC UNITARY AC HEATING COIL - FAN NODE,Air Nodes
 Component Set,87,AIRLOOPHVAC:UNITARYSYSTEM,ZONE WAREHOUSE FINE A  - STORY GROUND PSZ-AC UNITARY AC,COIL:COOLING:DX:SINGLESPEED,ZONE WAREHOUSE FINE A  - STORY GROUND PSZ-AC 1SPD DX AC CLG COIL 40KBTU/HR 14.0SEER,ZONE WAREHOUSE FINE A  - STORY GROUND PSZ-AC MIXED AIR NODE,ZONE WAREHOUSE FINE A  - STORY GROUND PSZ-AC UNITARY AC COOLING COIL - HEATING COIL NODE,Air Nodes
 Component Set,88,AIRLOOPHVAC:UNITARYSYSTEM,ZONE WAREHOUSE FINE A END_B - STORY GROUND PSZ-AC UNITARY AC,COIL:COOLING:DX:SINGLESPEED,ZONE WAREHOUSE FINE A END_B - STORY GROUND PSZ-AC 1SPD DX AC CLG COIL 13KBTU/HR 14.0SEER,ZONE WAREHOUSE FINE A END_B - STORY GROUND PSZ-AC MIXED AIR NODE,ZONE WAREHOUSE FINE A END_B - STORY GROUND PSZ-AC UNITARY AC COOLING COIL - HEATING COIL NODE,Air Nodes
 Component Set,89,AIRLOOPHVAC:UNITARYSYSTEM,ZONE WAREHOUSE FINE B  - STORY GROUND PSZ-AC UNITARY AC,COIL:COOLING:DX:SINGLESPEED,ZONE WAREHOUSE FINE B  - STORY GROUND PSZ-AC 1SPD DX AC CLG COIL 78KBTU/HR 11.0EER,ZONE WAREHOUSE FINE B  - STORY GROUND PSZ-AC MIXED AIR NODE,ZONE WAREHOUSE FINE B  - STORY GROUND PSZ-AC UNITARY AC COOLING COIL - HEATING COIL NODE,Air Nodes
 Component Set,90,AIRLOOPHVAC:UNITARYSYSTEM,ZONE WAREHOUSE FINE B END_B - STORY GROUND PSZ-AC UNITARY AC,COIL:COOLING:DX:SINGLESPEED,ZONE WAREHOUSE FINE B END_B - STORY GROUND PSZ-AC 1SPD DX AC CLG COIL 94KBTU/HR 11.0EER,ZONE WAREHOUSE FINE B END_B - STORY GROUND PSZ-AC MIXED AIR NODE,ZONE WAREHOUSE FINE B END_B - STORY GROUND PSZ-AC UNITARY AC COOLING COIL - HEATING COIL NODE,Air Nodes
 Component Set,91,AIRLOOPHVAC:UNITARYSYSTEM,ZONE WAREHOUSE FINE C  - STORY GROUND PSZ-AC UNITARY AC,COIL:COOLING:DX:SINGLESPEED,ZONE WAREHOUSE FINE C  - STORY GROUND PSZ-AC 1SPD DX AC CLG COIL 26KBTU/HR 14.0SEER,ZONE WAREHOUSE FINE C  - STORY GROUND PSZ-AC MIXED AIR NODE,ZONE WAREHOUSE FINE C  - STORY GROUND PSZ-AC UNITARY AC COOLING COIL - HEATING COIL NODE,Air Nodes
 Component Set,92,AIRLOOPHVAC:UNITARYSYSTEM,ZONE WAREHOUSE FINE C END_B - STORY GROUND PSZ-AC UNITARY AC,COIL:COOLING:DX:SINGLESPEED,ZONE WAREHOUSE FINE C END_B - STORY GROUND PSZ-AC 1SPD DX AC CLG COIL 10KBTU/HR 14.0SEER,ZONE WAREHOUSE FINE C END_B - STORY GROUND PSZ-AC MIXED AIR NODE,ZONE WAREHOUSE FINE C END_B - STORY GROUND PSZ-AC UNITARY AC COOLING COIL - HEATING COIL NODE,Air Nodes
 Component Set,93,AIRLOOPHVAC:UNITARYSYSTEM,ZONE WAREHOUSE OFFICE A  - STORY GROUND PSZ-AC UNITARY AC,COIL:COOLING:DX:SINGLESPEED,ZONE WAREHOUSE OFFICE A  - STORY GROUND PSZ-AC 1SPD DX AC CLG COIL 25KBTU/HR 14.0SEER,ZONE WAREHOUSE OFFICE A  - STORY GROUND PSZ-AC MIXED AIR NODE,ZONE WAREHOUSE OFFICE A  - STORY GROUND PSZ-AC UNITARY AC COOLING COIL - HEATING COIL NODE,Air Nodes
[...]
 Non-Parent Node Connection,ZONE WAREHOUSE FINE C  - STORY GROUND PSZ-AC WATER HTG COIL INLET WATER NODE,COIL:HEATING:WATER,ZONE WAREHOUSE FINE C  - STORY GROUND PSZ-AC WATER HTG COIL,Inlet,2
 Non-Parent Node Connection,ZONE WAREHOUSE FINE C  - STORY GROUND PSZ-AC WATER HTG COIL OUTLET WATER NODE,COIL:HEATING:WATER,ZONE WAREHOUSE FINE C  - STORY GROUND PSZ-AC WATER HTG COIL,Outlet,2
 Non-Parent Node Connection,ZONE WAREHOUSE FINE C  - STORY GROUND PSZ-AC UNITARY AC COOLING COIL - HEATING COIL NODE,COIL:HEATING:WATER,ZONE WAREHOUSE FINE C  - STORY GROUND PSZ-AC WATER HTG COIL,Inlet,1
 Non-Parent Node Connection,ZONE WAREHOUSE FINE C  - STORY GROUND PSZ-AC UNITARY AC HEATING COIL - FAN NODE,COIL:HEATING:WATER,ZONE WAREHOUSE FINE C  - STORY GROUND PSZ-AC WATER HTG COIL,Outlet,1
 Non-Parent Node Connection,ZONE WAREHOUSE FINE C END_B - STORY GROUND PSZ-AC WATER HTG COIL INLET WATER NODE,COIL:HEATING:WATER,ZONE WAREHOUSE FINE C END_B - STORY GROUND PSZ-AC WATER HTG COIL,Inlet,2
 Non-Parent Node Connection,ZONE WAREHOUSE FINE C END_B - STORY GROUND PSZ-AC WATER HTG COIL OUTLET WATER NODE,COIL:HEATING:WATER,ZONE WAREHOUSE FINE C END_B - STORY GROUND PSZ-AC WATER HTG COIL,Outlet,2
 Non-Parent Node Connection,ZONE WAREHOUSE FINE C END_B - STORY GROUND PSZ-AC UNITARY AC COOLING COIL - HEATING COIL NODE,COIL:HEATING:WATER,ZONE WAREHOUSE FINE C END_B - STORY GROUND PSZ-AC WATER HTG COIL,Inlet,1
 Non-Parent Node Connection,ZONE WAREHOUSE FINE C END_B - STORY GROUND PSZ-AC UNITARY AC HEATING COIL - FAN NODE,COIL:HEATING:WATER,ZONE WAREHOUSE FINE C END_B - STORY GROUND PSZ-AC WATER HTG COIL,Outlet,1
 Non-Parent Node Connection,ZONE WAREHOUSE OFFICE A  - STORY GROUND PSZ-AC WATER HTG COIL INLET WATER NODE,COIL:HEATING:WATER,ZONE WAREHOUSE OFFICE A  - STORY GROUND PSZ-AC WATER HTG COIL,Inlet,2
 Non-Parent Node Connection,ZONE WAREHOUSE OFFICE A  - STORY GROUND PSZ-AC WATER HTG COIL OUTLET WATER NODE,COIL:HEATING:WATER,ZONE WAREHOUSE OFFICE A  - STORY GROUND PSZ-AC WATER HTG COIL,Outlet,2
 Non-Parent Node Connection,ZONE WAREHOUSE OFFICE A  - STORY GROUND PSZ-AC UNITARY AC COOLING COIL - HEATING COIL NODE,COIL:HEATING:WATER,ZONE WAREHOUSE OFFICE A  - STORY GROUND PSZ-AC WATER HTG COIL,Inlet,1
 Non-Parent Node Connection,ZONE WAREHOUSE OFFICE A  - STORY GROUND PSZ-AC UNITARY AC HEATING COIL - FAN NODE,COIL:HEATING:WATER,ZONE WAREHOUSE OFFICE A  - STORY GROUND PSZ-AC WATER HTG COIL,Outlet,1
 Non-Parent Node Connection,ZONE WAREHOUSE OFFICE B  - STORY GROUND PSZ-AC WATER HTG COIL INLET WATER NODE,COIL:HEATING:WATER,ZONE WAREHOUSE OFFICE B  - STORY GROUND PSZ-AC WATER HTG COIL,Inlet,2
 Non-Parent Node Connection,ZONE WAREHOUSE OFFICE B  - STORY GROUND PSZ-AC WATER HTG COIL OUTLET WATER NODE,COIL:HEATING:WATER,ZONE WAREHOUSE OFFICE B  - STORY GROUND PSZ-AC WATER HTG COIL,Outlet,2
 Non-Parent Node Connection,ZONE WAREHOUSE OFFICE B  - STORY GROUND PSZ-AC UNITARY AC COOLING COIL - HEATING COIL NODE,COIL:HEATING:WATER,ZONE WAREHOUSE OFFICE B  - STORY GROUND PSZ-AC WATER HTG COIL,Inlet,1
 Non-Parent Node Connection,ZONE WAREHOUSE OFFICE B  - STORY GROUND PSZ-AC UNITARY AC HEATING COIL - FAN NODE,COIL:HEATING:WATER,ZONE WAREHOUSE OFFICE B  - STORY GROUND PSZ-AC WATER HTG COIL,Outlet,1
 Non-Parent Node Connection,ZONE WAREHOUSE OFFICE C  - STORY GROUND PSZ-AC WATER HTG COIL INLET WATER NODE,COIL:HEATING:WATER,ZONE WAREHOUSE OFFICE C  - STORY GROUND PSZ-AC WATER HTG COIL,Inlet,2
 Non-Parent Node Connection,ZONE WAREHOUSE OFFICE C  - STORY GROUND PSZ-AC WATER HTG COIL OUTLET WATER NODE,COIL:HEATING:WATER,ZONE WAREHOUSE OFFICE C  - STORY GROUND PSZ-AC WATER HTG COIL,Outlet,2
 Non-Parent Node Connection,ZONE WAREHOUSE OFFICE C  - STORY GROUND PSZ-AC UNITARY AC COOLING COIL - HEATING COIL NODE,COIL:HEATING:WATER,ZONE WAREHOUSE OFFICE C  - STORY GROUND PSZ-AC WATER HTG COIL,Inlet,1
 Non-Parent Node Connection,ZONE WAREHOUSE OFFICE C  - STORY GROUND PSZ-AC UNITARY AC HEATING COIL - FAN NODE,COIL:HEATING:WATER,ZONE WAREHOUSE OFFICE C  - STORY GROUND PSZ-AC WATER HTG COIL,Outlet,1
 Non-Parent Node Connection,ZONE WAREHOUSE FINE A  - STORY GROUND PSZ-AC MIXED AIR NODE,COIL:COOLING:DX:SINGLESPEED,ZONE WAREHOUSE FINE A  - STORY GROUND PSZ-AC 1SPD DX AC CLG COIL 40KBTU/HR 14.0SEER,Inlet,1
 Non-Parent Node Connection,ZONE WAREHOUSE FINE A  - STORY GROUND PSZ-AC UNITARY AC COOLING COIL - HEATING COIL NODE,COIL:COOLING:DX:SINGLESPEED,ZONE WAREHOUSE FINE A  - STORY GROUND PSZ-AC 1SPD DX AC CLG COIL 40KBTU/HR 14.0SEER,Outlet,1
 Non-Parent Node Connection,ZONE WAREHOUSE FINE A END_B - STORY GROUND PSZ-AC MIXED AIR NODE,COIL:COOLING:DX:SINGLESPEED,ZONE WAREHOUSE FINE A END_B - STORY GROUND PSZ-AC 1SPD DX AC CLG COIL 13KBTU/HR 14.0SEER,Inlet,1
 Non-Parent Node Connection,ZONE WAREHOUSE FINE A END_B - STORY GROUND PSZ-AC UNITARY AC COOLING COIL - HEATING COIL NODE,COIL:COOLING:DX:SINGLESPEED,ZONE WAREHOUSE FINE A END_B - STORY GROUND PSZ-AC 1SPD DX AC CLG COIL 13KBTU/HR 14.0SEER,Outlet,1
 Non-Parent Node Connection,ZONE WAREHOUSE FINE B  - STORY GROUND PSZ-AC MIXED AIR NODE,COIL:COOLING:DX:SINGLESPEED,ZONE WAREHOUSE FINE B  - STORY GROUND PSZ-AC 1SPD DX AC CLG COIL 78KBTU/HR 11.0EER,Inlet,1
 Non-Parent Node Connection,ZONE WAREHOUSE FINE B  - STORY GROUND PSZ-AC UNITARY AC COOLING COIL - HEATING COIL NODE,COIL:COOLING:DX:SINGLESPEED,ZONE WAREHOUSE FINE B  - STORY GROUND PSZ-AC 1SPD DX AC CLG COIL 78KBTU/HR 11.0EER,Outlet,1
 Non-Parent Node Connection,ZONE WAREHOUSE FINE B END_B - STORY GROUND PSZ-AC MIXED AIR NODE,COIL:COOLING:DX:SINGLESPEED,ZONE WAREHOUSE FINE B END_B - STORY GROUND PSZ-AC 1SPD DX AC CLG COIL 94KBTU/HR 11.0EER,Inlet,1
 Non-Parent Node Connection,ZONE WAREHOUSE FINE B END_B - STORY GROUND PSZ-AC UNITARY AC COOLING COIL - HEATING COIL NODE,COIL:COOLING:DX:SINGLESPEED,ZONE WAREHOUSE FINE B END_B - STORY GROUND PSZ-AC 1SPD DX AC CLG COIL 94KBTU/HR 11.0EER,Outlet,1
 Non-Parent Node Connection,ZONE WAREHOUSE FINE C  - STORY GROUND PSZ-AC MIXED AIR NODE,COIL:COOLING:DX:SINGLESPEED,ZONE WAREHOUSE FINE C  - STORY GROUND PSZ-AC 1SPD DX AC CLG COIL 26KBTU/HR 14.0SEER,Inlet,1
 Non-Parent Node Connection,ZONE WAREHOUSE FINE C  - STORY GROUND PSZ-AC UNITARY AC COOLING COIL - HEATING COIL NODE,COIL:COOLING:DX:SINGLESPEED,ZONE WAREHOUSE FINE C  - STORY GROUND PSZ-AC 1SPD DX AC CLG COIL 26KBTU/HR 14.0SEER,Outlet,1
 Non-Parent Node Connection,ZONE WAREHOUSE FINE C END_B - STORY GROUND PSZ-AC MIXED AIR NODE,COIL:COOLING:DX:SINGLESPEED,ZONE WAREHOUSE FINE C END_B - STORY GROUND PSZ-AC 1SPD DX AC CLG COIL 10KBTU/HR 14.0SEER,Inlet,1
 Non-Parent Node Connection,ZONE WAREHOUSE FINE C END_B - STORY GROUND PSZ-AC UNITARY AC COOLING COIL - HEATING COIL NODE,COIL:COOLING:DX:SINGLESPEED,ZONE WAREHOUSE FINE C END_B - STORY GROUND PSZ-AC 1SPD DX AC CLG COIL 10KBTU/HR 14.0SEER,Outlet,1
 Non-Parent Node Connection,ZONE WAREHOUSE OFFICE A  - STORY GROUND PSZ-AC MIXED AIR NODE,COIL:COOLING:DX:SINGLESPEED,ZONE WAREHOUSE OFFICE A  - STORY GROUND PSZ-AC 1SPD DX AC CLG COIL 25KBTU/HR 14.0SEER,Inlet,1
 Non-Parent Node Connection,ZONE WAREHOUSE OFFICE A  - STORY GROUND PSZ-AC UNITARY AC COOLING COIL - HEATING COIL NODE,COIL:COOLING:DX:SINGLESPEED,ZONE WAREHOUSE OFFICE A  - STORY GROUND PSZ-AC 1SPD DX AC CLG COIL 25KBTU/HR 14.0SEER,Outlet,1
 Non-Parent Node Connection,ZONE WAREHOUSE OFFICE B  - STORY GROUND PSZ-AC MIXED AIR NODE,COIL:COOLING:DX:SINGLESPEED,ZONE WAREHOUSE OFFICE B  - STORY GROUND PSZ-AC 1SPD DX AC CLG COIL 141KBTU/HR 10.8EER,Inlet,1
 Non-Parent Node Connection,ZONE WAREHOUSE OFFICE B  - STORY GROUND PSZ-AC UNITARY AC COOLING COIL - HEATING COIL NODE,COIL:COOLING:DX:SINGLESPEED,ZONE WAREHOUSE OFFICE B  - STORY GROUND PSZ-AC 1SPD DX AC CLG COIL 141KBTU/HR 10.8EER,Outlet,1
 Non-Parent Node Connection,ZONE WAREHOUSE OFFICE C  - STORY GROUND PSZ-AC MIXED AIR NODE,COIL:COOLING:DX:SINGLESPEED,ZONE WAREHOUSE OFFICE C  - STORY GROUND PSZ-AC 1SPD DX AC CLG COIL 14KBTU/HR 14.0SEER,Inlet,1
 Non-Parent Node Connection,ZONE WAREHOUSE OFFICE C  - STORY GROUND PSZ-AC UNITARY AC COOLING COIL - HEATING COIL NODE,COIL:COOLING:DX:SINGLESPEED,ZONE WAREHOUSE OFFICE C  - STORY GROUND PSZ-AC 1SPD DX AC CLG COIL 14KBTU/HR 14.0SEER,Outlet,1
 Non-Parent Node Connection,ZONE WAREHOUSE FINE A  - STORY GROUND PSZ-AC UNITARY AC FAN - SUPPLEMENTAL COIL NODE,COIL:HEATING:ELECTRIC,ZONE WAREHOUSE FINE A  - STORY GROUND PSZ-AC ELECTRIC BACKUP HTG COIL,Inlet,1
 Non-Parent Node Connection,ZONE WAREHOUSE FINE A  - STORY GROUND PSZ-AC SUPPLY OUTLET NODE,COIL:HEATING:ELECTRIC,ZONE WAREHOUSE FINE A  - STORY GROUND PSZ-AC ELECTRIC BACKUP HTG COIL,Outlet,1
 Non-Parent Node Connection,ZONE WAREHOUSE FINE A END_B - STORY GROUND PSZ-AC UNITARY AC FAN - SUPPLEMENTAL COIL NODE,COIL:HEATING:ELECTRIC,ZONE WAREHOUSE FINE A END_B - STORY GROUND PSZ-AC ELECTRIC BACKUP HTG COIL,Inlet,1
 Non-Parent Node Connection,ZONE WAREHOUSE FINE A END_B - STORY GROUND PSZ-AC SUPPLY OUTLET NODE,COIL:HEATING:ELECTRIC,ZONE WAREHOUSE FINE A END_B - STORY GROUND PSZ-AC ELECTRIC BACKUP HTG COIL,Outlet,1
 Non-Parent Node Connection,ZONE WAREHOUSE FINE B  - STORY GROUND PSZ-AC UNITARY AC FAN - SUPPLEMENTAL COIL NODE,COIL:HEATING:ELECTRIC,ZONE WAREHOUSE FINE B  - STORY GROUND PSZ-AC ELECTRIC BACKUP HTG COIL,Inlet,1
 Non-Parent Node Connection,ZONE WAREHOUSE FINE B  - STORY GROUND PSZ-AC SUPPLY OUTLET NODE,COIL:HEATING:ELECTRIC,ZONE WAREHOUSE FINE B  - STORY GROUND PSZ-AC ELECTRIC BACKUP HTG COIL,Outlet,1
 Non-Parent Node Connection,ZONE WAREHOUSE FINE B END_B - STORY GROUND PSZ-AC UNITARY AC FAN - SUPPLEMENTAL COIL NODE,COIL:HEATING:ELECTRIC,ZONE WAREHOUSE FINE B END_B - STORY GROUND PSZ-AC ELECTRIC BACKUP HTG COIL,Inlet,1
 Non-Parent Node Connection,ZONE WAREHOUSE FINE B END_B - STORY GROUND PSZ-AC SUPPLY OUTLET NODE,COIL:HEATING:ELECTRIC,ZONE WAREHOUSE FINE B END_B - STORY GROUND PSZ-AC ELECTRIC BACKUP HTG COIL,Outlet,1
 Non-Parent Node Connection,ZONE WAREHOUSE FINE C  - STORY GROUND PSZ-AC UNITARY AC FAN - SUPPLEMENTAL COIL NODE,COIL:HEATING:ELECTRIC,ZONE WAREHOUSE FINE C  - STORY GROUND PSZ-AC ELECTRIC BACKUP HTG COIL,Inlet,1
 Non-Parent Node Connection,ZONE WAREHOUSE FINE C  - STORY GROUND PSZ-AC SUPPLY OUTLET NODE,COIL:HEATING:ELECTRIC,ZONE WAREHOUSE FINE C  - STORY GROUND PSZ-AC ELECTRIC BACKUP HTG COIL,Outlet,1
 Non-Parent Node Connection,ZONE WAREHOUSE FINE C END_B - STORY GROUND PSZ-AC UNITARY AC FAN - SUPPLEMENTAL COIL NODE,COIL:HEATING:ELECTRIC,ZONE WAREHOUSE FINE C END_B - STORY GROUND PSZ-AC ELECTRIC BACKUP HTG COIL,Inlet,1
 Non-Parent Node Connection,ZONE WAREHOUSE FINE C END_B - STORY GROUND PSZ-AC SUPPLY OUTLET NODE,COIL:HEATING:ELECTRIC,ZONE WAREHOUSE FINE C END_B - STORY GROUND PSZ-AC ELECTRIC BACKUP HTG COIL,Outlet,1
 Non-Parent Node Connection,ZONE WAREHOUSE OFFICE A  - STORY GROUND PSZ-AC UNITARY AC FAN - SUPPLEMENTAL COIL NODE,COIL:HEATING:ELECTRIC,ZONE WAREHOUSE OFFICE A  - STORY GROUND PSZ-AC ELECTRIC BACKUP HTG COIL,Inlet,1
 Non-Parent Node Connection,ZONE WAREHOUSE OFFICE A  - STORY GROUND PSZ-AC SUPPLY OUTLET NODE,COIL:HEATING:ELECTRIC,ZONE WAREHOUSE OFFICE A  - STORY GROUND PSZ-AC ELECTRIC BACKUP HTG COIL,Outlet,1
 Non-Parent Node Connection,ZONE WAREHOUSE OFFICE B  - STORY GROUND PSZ-AC UNITARY AC FAN - SUPPLEMENTAL COIL NODE,COIL:HEATING:ELECTRIC,ZONE WAREHOUSE OFFICE B  - STORY GROUND PSZ-AC ELECTRIC BACKUP HTG COIL,Inlet,1
 Non-Parent Node Connection,ZONE WAREHOUSE OFFICE B  - STORY GROUND PSZ-AC SUPPLY OUTLET NODE,COIL:HEATING:ELECTRIC,ZONE WAREHOUSE OFFICE B  - STORY GROUND PSZ-AC ELECTRIC BACKUP HTG COIL,Outlet,1
 Non-Parent Node Connection,ZONE WAREHOUSE OFFICE C  - STORY GROUND PSZ-AC UNITARY AC FAN - SUPPLEMENTAL COIL NODE,COIL:HEATING:ELECTRIC,ZONE WAREHOUSE OFFICE C  - STORY GROUND PSZ-AC ELECTRIC BACKUP HTG COIL,Inlet,1
 Non-Parent Node Connection,ZONE WAREHOUSE OFFICE C  - STORY GROUND PSZ-AC SUPPLY OUTLET NODE,COIL:HEATING:ELECTRIC,ZONE WAREHOUSE OFFICE C  - STORY GROUND PSZ-AC ELECTRIC BACKUP HTG COIL,Outlet,1
 Non-Parent Node Connection,ZONE WAREHOUSE FINE A  - STORY GROUND PSZ-AC MIXED AIR NODE,CONTROLLER:OUTDOORAIR,ZONE WAREHOUSE FINE A  - STORY GROUND PSZ-AC OA SYSTEM CONTROLLER,Sensor,1
 Non-Parent Node Connection,ZONE WAREHOUSE FINE A  - STORY GROUND PSZ-AC OUTDOOR AIR NODE,CONTROLLER:OUTDOORAIR,ZONE WAREHOUSE FINE A  - STORY GROUND PSZ-AC OA SYSTEM CONTROLLER,Actuator,1
 Non-Parent Node Connection,ZONE WAREHOUSE FINE A  - STORY GROUND PSZ-AC RELIEF AIR NODE,CONTROLLER:OUTDOORAIR,ZONE WAREHOUSE FINE A  - STORY GROUND PSZ-AC OA SYSTEM CONTROLLER,Actuator,1
 Non-Parent Node Connection,ZONE WAREHOUSE FINE A  - STORY GROUND PSZ-AC SUPPLY INLET NODE,CONTROLLER:OUTDOORAIR,ZONE WAREHOUSE FINE A  - STORY GROUND PSZ-AC OA SYSTEM CONTROLLER,Sensor,1
 Non-Parent Node Connection,ZONE WAREHOUSE FINE A END_B - STORY GROUND PSZ-AC MIXED AIR NODE,CONTROLLER:OUTDOORAIR,ZONE WAREHOUSE FINE A END_B - STORY GROUND PSZ-AC OA SYSTEM CONTROLLER,Sensor,1
 Non-Parent Node Connection,ZONE WAREHOUSE FINE A END_B - STORY GROUND PSZ-AC OUTDOOR AIR NODE,CONTROLLER:OUTDOORAIR,ZONE WAREHOUSE FINE A END_B - STORY GROUND PSZ-AC OA SYSTEM CONTROLLER,Actuator,1
 Non-Parent Node Connection,ZONE WAREHOUSE FINE A END_B - STORY GROUND PSZ-AC RELIEF AIR NODE,CONTROLLER:OUTDOORAIR,ZONE WAREHOUSE FINE A END_B - STORY GROUND PSZ-AC OA SYSTEM CONTROLLER,Actuator,1
 Non-Parent Node Connection,ZONE WAREHOUSE FINE A END_B - STORY GROUND PSZ-AC SUPPLY INLET NODE,CONTROLLER:OUTDOORAIR,ZONE WAREHOUSE FINE A END_B - STORY GROUND PSZ-AC OA SYSTEM CONTROLLER,Sensor,1
 Non-Parent Node Connection,ZONE WAREHOUSE FINE B  - STORY GROUND PSZ-AC MIXED AIR NODE,CONTROLLER:OUTDOORAIR,ZONE WAREHOUSE FINE B  - STORY GROUND PSZ-AC OA SYSTEM CONTROLLER,Sensor,1
 Non-Parent Node Connection,ZONE WAREHOUSE FINE B  - STORY GROUND PSZ-AC OUTDOOR AIR NODE,CONTROLLER:OUTDOORAIR,ZONE WAREHOUSE FINE B  - STORY GROUND PSZ-AC OA SYSTEM CONTROLLER,Actuator,1
 Non-Parent Node Connection,NODE 3,CONTROLLER:OUTDOORAIR,ZONE WAREHOUSE FINE B  - STORY GROUND PSZ-AC OA SYSTEM CONTROLLER,Actuator,1
 Non-Parent Node Connection,ZONE WAREHOUSE FINE B  - STORY GROUND PSZ-AC SUPPLY INLET NODE,CONTROLLER:OUTDOORAIR,ZONE WAREHOUSE FINE B  - STORY GROUND PSZ-AC OA SYSTEM CONTROLLER,Sensor,1
 Non-Parent Node Connection,ZONE WAREHOUSE FINE B END_B - STORY GROUND PSZ-AC MIXED AIR NODE,CONTROLLER:OUTDOORAIR,ZONE WAREHOUSE FINE B END_B - STORY GROUND PSZ-AC OA SYSTEM CONTROLLER,Sensor,1
 Non-Parent Node Connection,ZONE WAREHOUSE FINE B END_B - STORY GROUND PSZ-AC OUTDOOR AIR NODE,CONTROLLER:OUTDOORAIR,ZONE WAREHOUSE FINE B END_B - STORY GROUND PSZ-AC OA SYSTEM CONTROLLER,Actuator,1
 Non-Parent Node Connection,ZONE WAREHOUSE FINE B END_B - STORY GROUND PSZ-AC RELIEF AIR NODE,CONTROLLER:OUTDOORAIR,ZONE WAREHOUSE FINE B END_B - STORY GROUND PSZ-AC OA SYSTEM CONTROLLER,Actuator,1
 Non-Parent Node Connection,ZONE WAREHOUSE FINE B END_B - STORY GROUND PSZ-AC SUPPLY INLET NODE,CONTROLLER:OUTDOORAIR,ZONE WAREHOUSE FINE B END_B - STORY GROUND PSZ-AC OA SYSTEM CONTROLLER,Sensor,1
 Non-Parent Node Connection,ZONE WAREHOUSE FINE C  - STORY GROUND PSZ-AC MIXED AIR NODE,CONTROLLER:OUTDOORAIR,ZONE WAREHOUSE FINE C  - STORY GROUND PSZ-AC OA SYSTEM CONTROLLER,Sensor,1
 Non-Parent Node Connection,ZONE WAREHOUSE FINE C  - STORY GROUND PSZ-AC OUTDOOR AIR NODE,CONTROLLER:OUTDOORAIR,ZONE WAREHOUSE FINE C  - STORY GROUND PSZ-AC OA SYSTEM CONTROLLER,Actuator,1
 Non-Parent Node Connection,ZONE WAREHOUSE FINE C  - STORY GROUND PSZ-AC RELIEF AIR NODE,CONTROLLER:OUTDOORAIR,ZONE WAREHOUSE FINE C  - STORY GROUND PSZ-AC OA SYSTEM CONTROLLER,Actuator,1
 Non-Parent Node Connection,ZONE WAREHOUSE FINE C  - STORY GROUND PSZ-AC SUPPLY INLET NODE,CONTROLLER:OUTDOORAIR,ZONE WAREHOUSE FINE C  - STORY GROUND PSZ-AC OA SYSTEM CONTROLLER,Sensor,1
 Non-Parent Node Connection,ZONE WAREHOUSE FINE C END_B - STORY GROUND PSZ-AC MIXED AIR NODE,CONTROLLER:OUTDOORAIR,ZONE WAREHOUSE FINE C END_B - STORY GROUND PSZ-AC OA SYSTEM CONTROLLER,Sensor,1
 Non-Parent Node Connection,ZONE WAREHOUSE FINE C END_B - STORY GROUND PSZ-AC OUTDOOR AIR NODE,CONTROLLER:OUTDOORAIR,ZONE WAREHOUSE FINE C END_B - STORY GROUND PSZ-AC OA SYSTEM CONTROLLER,Actuator,1
 Non-Parent Node Connection,ZONE WAREHOUSE FINE C END_B - STORY GROUND PSZ-AC RELIEF AIR NODE,CONTROLLER:OUTDOORAIR,ZONE WAREHOUSE FINE C END_B - STORY GROUND PSZ-AC OA SYSTEM CONTROLLER,Actuator,1
 Non-Parent Node Connection,ZONE WAREHOUSE FINE C END_B - STORY GROUND PSZ-AC SUPPLY INLET NODE,CONTROLLER:OUTDOORAIR,ZONE WAREHOUSE FINE C END_B - STORY GROUND PSZ-AC OA SYSTEM CONTROLLER,Sensor,1
 Non-Parent Node Connection,ZONE WAREHOUSE OFFICE A  - STORY GROUND PSZ-AC MIXED AIR NODE,CONTROLLER:OUTDOORAIR,ZONE WAREHOUSE OFFICE A  - STORY GROUND PSZ-AC OA SYSTEM CONTROLLER,Sensor,1
 Non-Parent Node Connection,ZONE WAREHOUSE OFFICE A  - STORY GROUND PSZ-AC OUTDOOR AIR NODE,CONTROLLER:OUTDOORAIR,ZONE WAREHOUSE OFFICE A  - STORY GROUND PSZ-AC OA SYSTEM CONTROLLER,Actuator,1
 Non-Parent Node Connection,ZONE WAREHOUSE OFFICE A  - STORY GROUND PSZ-AC RELIEF AIR NODE,CONTROLLER:OUTDOORAIR,ZONE WAREHOUSE OFFICE A  - STORY GROUND PSZ-AC OA SYSTEM CONTROLLER,Actuator,1
 Non-Parent Node Connection,ZONE WAREHOUSE OFFICE A  - STORY GROUND PSZ-AC SUPPLY INLET NODE,CONTROLLER:OUTDOORAIR,ZONE WAREHOUSE OFFICE A  - STORY GROUND PSZ-AC OA SYSTEM CONTROLLER,Sensor,1
 Non-Parent Node Connection,ZONE WAREHOUSE OFFICE B  - STORY GROUND PSZ-AC MIXED AIR NODE,CONTROLLER:OUTDOORAIR,ZONE WAREHOUSE OFFICE B  - STORY GROUND PSZ-AC OA SYSTEM CONTROLLER,Sensor,1
 Non-Parent Node Connection,ZONE WAREHOUSE OFFICE B  - STORY GROUND PSZ-AC OUTDOOR AIR NODE,CONTROLLER:OUTDOORAIR,ZONE WAREHOUSE OFFICE B  - STORY GROUND PSZ-AC OA SYSTEM CONTROLLER,Actuator,1
 Non-Parent Node Connection,ZONE WAREHOUSE OFFICE B  - STORY GROUND PSZ-AC RELIEF AIR NODE,CONTROLLER:OUTDOORAIR,ZONE WAREHOUSE OFFICE B  - STORY GROUND PSZ-AC OA SYSTEM CONTROLLER,Actuator,1
 Non-Parent Node Connection,ZONE WAREHOUSE OFFICE B  - STORY GROUND PSZ-AC SUPPLY INLET NODE,CONTROLLER:OUTDOORAIR,ZONE WAREHOUSE OFFICE B  - STORY GROUND PSZ-AC OA SYSTEM CONTROLLER,Sensor,1
 Non-Parent Node Connection,ZONE WAREHOUSE OFFICE C  - STORY GROUND PSZ-AC MIXED AIR NODE,CONTROLLER:OUTDOORAIR,ZONE WAREHOUSE OFFICE C  - STORY GROUND PSZ-AC OA SYSTEM CONTROLLER,Sensor,1
 Non-Parent Node Connection,ZONE WAREHOUSE OFFICE C  - STORY GROUND PSZ-AC OUTDOOR AIR NODE,CONTROLLER:OUTDOORAIR,ZONE WAREHOUSE OFFICE C  - STORY GROUND PSZ-AC OA SYSTEM CONTROLLER,Actuator,1
 Non-Parent Node Connection,ZONE WAREHOUSE OFFICE C  - STORY GROUND PSZ-AC RELIEF AIR NODE,CONTROLLER:OUTDOORAIR,ZONE WAREHOUSE OFFICE C  - STORY GROUND PSZ-AC OA SYSTEM CONTROLLER,Actuator,1
 Non-Parent Node Connection,ZONE WAREHOUSE OFFICE C  - STORY GROUND PSZ-AC SUPPLY INLET NODE,CONTROLLER:OUTDOORAIR,ZONE WAREHOUSE OFFICE C  - STORY GROUND PSZ-AC OA SYSTEM CONTROLLER,Sensor,1
 Non-Parent Node Connection,ZONE WAREHOUSE FINE B  - STORY GROUND PSZ-AC OUTDOOR AIR NODE,HEATEXCHANGER:AIRTOAIR:SENSIBLEANDLATENT,ZONE WAREHOUSE FINE B  - STORY GROUND PSZ-AC ERV,Inlet,1
 Non-Parent Node Connection,NODE 2,HEATEXCHANGER:AIRTOAIR:SENSIBLEANDLATENT,ZONE WAREHOUSE FINE B  - STORY GROUND PSZ-AC ERV,Outlet,1
 Non-Parent Node Connection,NODE 3,HEATEXCHANGER:AIRTOAIR:SENSIBLEANDLATENT,ZONE WAREHOUSE FINE B  - STORY GROUND PSZ-AC ERV,Inlet,2
 Non-Parent Node Connection,ZONE WAREHOUSE FINE B  - STORY GROUND PSZ-AC RELIEF AIR NODE,HEATEXCHANGER:AIRTOAIR:SENSIBLEANDLATENT,ZONE WAREHOUSE FINE B  - STORY GROUND PSZ-AC ERV,Outlet,2
 Non-Parent Node Connection,HOT WATER LOOP SUPPLY INLET NODE,PUMP:VARIABLESPEED,HOT WATER LOOP PUMP,Inlet,1
 Non-Parent Node Connection,HOT WATER LOOP PUMP OUTLET WATER NODE,PUMP:VARIABLESPEED,HOT WATER LOOP PUMP,Outlet,1
 Non-Parent Node Connection,MAIN SERVICE WATER LOOP SUPPLY INLET NODE,PUMP:VARIABLESPEED,MAIN SERVICE WATER LOOP WATER MAINS PRESSURE DRIVEN,Inlet,1
 Non-Parent Node Connection,MAIN SERVICE WATER LOOP WATER MAINS PRESSURE DRIVEN OUTLET WATER NODE,PUMP:VARIABLESPEED,MAIN SERVICE WATER LOOP WATER MAINS PRESSURE DRIVEN,Outlet,1
