{
   "completed_at" : "20230424T174827Z",
   "completed_status" : "Success",
   "created_at" : "20230206T223851Z",
   "current_step" : 3,
   "eplusout_err" : "Program Version,EnergyPlus, Version 22.2.0-aa78da9668, YMD=2023.04.24 11:47,\n   ************* Beginning Zone Sizing Calculations\n   ** Warning ** ProcessScheduleInput: Schedule:Constant=\"ALWAYS OFF DISCRETE\", Blank Schedule Type Limits Name input -- will not be validated.\n   ** Warning ** ProcessScheduleInput: Schedule:Constant=\"ALWAYS ON CONTINUOUS\", Blank Schedule Type Limits Name input -- will not be validated.\n   ** Warning ** CheckUsedConstructions: There are 19 nominally unused constructions in input.\n   **   ~~~   ** For explicit details on each unused construction, use Output:Diagnostics,DisplayExtraWarnings;\n   ** Warning ** GetInternalHeatGains: People=\"WAREHOUSE OFFICE PEOPLE\" has comfort related schedules but no thermal comfort model selected.\n   **   ~~~   ** If schedules are specified for air velocity, clothing insulation, and/or work efficiency but no thermal comfort\n   **   ~~~   ** thermal comfort model is selected, the schedules will be listed as unused schedules in the .err file.\n   **   ~~~   ** To avoid these errors, select a valid thermal comfort model or eliminate these schedules in the PEOPLE input.\n   ** Warning ** GetInternalHeatGains: People=\"WAREHOUSE OFFICE PEOPLE\" has comfort related schedules but no thermal comfort model selected.\n   **   ~~~   ** If schedules are specified for air velocity, clothing insulation, and/or work efficiency but no thermal comfort\n   **   ~~~   ** thermal comfort model is selected, the schedules will be listed as unused schedules in the .err file.\n   **   ~~~   ** To avoid these errors, select a valid thermal comfort model or eliminate these schedules in the PEOPLE input.\n   ** Warning ** GetInternalHeatGains: People=\"WAREHOUSE OFFICE PEOPLE\" has comfort related schedules but no thermal comfort model selected.\n   **   ~~~   ** If schedules are specified for air velocity, clothing insulation, and/or work efficiency but no thermal comfort\n   **   ~~~   ** thermal comfort model is selected, the schedules will be listed as unused schedules in the .err file.\n   **   ~~~   ** To avoid these errors, select a valid thermal comfort model or eliminate these schedules in the PEOPLE input.\n   ** Warning ** GetDaylightingControls: Fraction of zone or space controlled by the Daylighting reference points is < 1.0.\n   **   ~~~   ** ..discovered in Daylighting:Controls=\"ZONE WAREHOUSE BULK A  - STORY GROUND DAYLIGHTINGCONTROLS\", only 0.999 of the zone or space is controlled.\n   ** Warning ** GetDaylightingControls: Fraction of zone or space controlled by the Daylighting reference points is < 1.0.\n   **   ~~~   ** ..discovered in Daylighting:Controls=\"ZONE WAREHOUSE BULK B END_A - STORY GROUND DAYLIGHTINGCONTROLS\", only 0.999 of the zone or space is controlled.\n   ** Warning ** GetDaylightingControls: Fraction of zone or space controlled by the Daylighting reference points is < 1.0.\n   **   ~~~   ** ..discovered in Daylighting:Controls=\"ZONE WAREHOUSE BULK C  - STORY GROUND DAYLIGHTINGCONTROLS\", only 0.999 of the zone or space is controlled.\n   ** Warning ** GetDaylightingControls: Fraction of zone or space controlled by the Daylighting reference points is < 1.0.\n   **   ~~~   ** ..discovered in Daylighting:Controls=\"ZONE WAREHOUSE FINE A  - STORY GROUND DAYLIGHTINGCONTROLS\", only 0.999 of the zone or space is controlled.\n   ** Warning ** GetDaylightingControls: Fraction of zone or space controlled by the Daylighting reference points is < 1.0.\n   **   ~~~   ** ..discovered in Daylighting:Controls=\"ZONE WAREHOUSE FINE B END_B - STORY GROUND DAYLIGHTINGCONTROLS\", only 0.999 of the zone or space is controlled.\n   ** Warning ** GetDaylightingControls: Fraction of zone or space controlled by the Daylighting reference points is < 1.0.\n   **   ~~~   ** ..discovered in Daylighting:Controls=\"ZONE WAREHOUSE FINE C  - STORY GROUND DAYLIGHTINGCONTROLS\", only 0.999 of the zone or space is controlled.\n   ** Warning ** GeometryTransformForDaylighting: Reference point Y Value outside Zone Min/Max Y, Zone=ZONE WAREHOUSE BULK A  - STORY GROUND\n   **   ~~~   ** ...Y Reference Point= -28.26, Zone Minimum Y= -32.92, Zone Maximum Y= -28.35\n   **   ~~~   ** ...Y Reference Distance Outside MaximumY= 9.2962E-002 m.\n   ** Warning ** GeometryTransformForDaylighting: Reference point X Value outside Zone Min/Max X, Zone=ZONE WAREHOUSE BULK B END_A - STORY GROUND\n   **   ~~~   ** ...X Reference Point= -44.72, Zone Minimum X= -49.38, Zone Maximum X= -44.81\n   **   ~~~   ** ...X Reference Distance Outside MaximumX= 9.3188E-002 m.\n   ** Warning ** GeometryTransformForDaylighting: Reference point Y Value outside Zone Min/Max Y, Zone=ZONE WAREHOUSE BULK C  - STORY GROUND\n   **   ~~~   ** ...Y Reference Point= 28.26, Zone Minimum Y= 28.35, Zone Maximum Y= 32.92\n   **   ~~~   ** ...Y Reference Distance Outside MinimumY= 9.2962E-002 m.\n   ** Warning ** GeometryTransformForDaylighting: Reference point Y Value outside Zone Min/Max Y, Zone=ZONE WAREHOUSE FINE A  - STORY GROUND\n   **   ~~~   ** ...Y Reference Point= -28.25, Zone Minimum Y= -32.92, Zone Maximum Y= -28.35\n   **   ~~~   ** ...Y Reference Distance Outside MaximumY= 9.7690E-002 m.\n   ** Warning ** GeometryTransformForDaylighting: Reference point X Value outside Zone Min/Max X, Zone=ZONE WAREHOUSE FINE B END_B - STORY GROUND\n   **   ~~~   ** ...X Reference Point= 44.72, Zone Minimum X= 44.81, Zone Maximum X= 49.38\n   **   ~~~   ** ...X Reference Distance Outside MinimumX= 9.3188E-002 m.\n   ** Warning ** GeometryTransformForDaylighting: Reference point Y Value outside Zone Min/Max Y, Zone=ZONE WAREHOUSE FINE C  - STORY GROUND\n   **   ~~~   ** ...Y Reference Point= 28.25, Zone Minimum Y= 28.35, Zone Maximum Y= 32.92\n   **   ~~~   ** ...Y Reference Distance Outside MinimumY= 9.7690E-002 m.\n   ** Severe  ** WaterHeater:Mixed = 40GAL ELECTRICITY WATER HEATER - 40KBTU/HR 1.0 THERM EFF 1.0 THERM EFF:  Ambient Temperature Zone not found = \n   ** Warning ** Calculated design cooling load for zone=ZONE WAREHOUSE BULK A  - STORY GROUND is zero.\n   **   ~~~   ** Check Sizing:Zone and ZoneControl:Thermostat inputs.\n   ** Warning ** Calculated design cooling load for zone=ZONE WAREHOUSE BULK A END_A - STORY GROUND is zero.\n   **   ~~~   ** Check Sizing:Zone and ZoneControl:Thermostat inputs.\n   ** Warning ** Calculated design cooling load for zone=ZONE WAREHOUSE BULK B  - STORY GROUND is zero.\n   **   ~~~   ** Check Sizing:Zone and ZoneControl:Thermostat inputs.\n   ** Warning ** Calculated design cooling load for zone=ZONE WAREHOUSE BULK B END_A - STORY GROUND is zero.\n   **   ~~~   ** Check Sizing:Zone and ZoneControl:Thermostat inputs.\n   ** Warning ** Calculated design cooling load for zone=ZONE WAREHOUSE BULK C  - STORY GROUND is zero.\n   **   ~~~   ** Check Sizing:Zone and ZoneControl:Thermostat inputs.\n   ** Warning ** Calculated design cooling load for zone=ZONE WAREHOUSE BULK C END_A - STORY GROUND is zero.\n   **   ~~~   ** Check Sizing:Zone and ZoneControl:Thermostat inputs.\n   ************* Beginning System Sizing Calculations\n   ** Warning ** AirLoopHVAC:UnitarySystem = ZONE WAREHOUSE FINE A  - STORY GROUND PSZ-AC UNITARY AC\n   **   ~~~   ** Method used to determine the cooling supply air flow rate is not specified when cooling coil is present.\n   ** Warning ** AirLoopHVAC:UnitarySystem = ZONE WAREHOUSE FINE A  - STORY GROUND PSZ-AC UNITARY AC\n   **   ~~~   ** Method used to determine the heating supply air flow rate is not specified when heating coil is present.\n   ** Warning ** AirLoopHVAC:UnitarySystem = ZONE WAREHOUSE FINE A END_B - STORY GROUND PSZ-AC UNITARY AC\n   **   ~~~   ** Method used to determine the cooling supply air flow rate is not specified when cooling coil is present.\n   ** Warning ** AirLoopHVAC:UnitarySystem = ZONE WAREHOUSE FINE A END_B - STORY GROUND PSZ-AC UNITARY AC\n   **   ~~~   ** Method used to determine the heating supply air flow rate is not specified when heating coil is present.\n   ** Warning ** AirLoopHVAC:UnitarySystem = ZONE WAREHOUSE FINE B  - STORY GROUND PSZ-AC UNITARY AC\n   **   ~~~   ** Method used to determine the cooling supply air flow rate is not specified when cooling coil is present.\n   ** Warning ** AirLoopHVAC:UnitarySystem = ZONE WAREHOUSE FINE B  - STORY GROUND PSZ-AC UNITARY AC\n   **   ~~~   ** Method used to determine the heating supply air flow rate is not specified when heating coil is present.\n   ** Warning ** AirLoopHVAC:UnitarySystem = ZONE WAREHOUSE FINE B END_B - STORY GROUND PSZ-AC UNITARY AC\n   **   ~~~   ** Method used to determine the cooling supply air flow rate is not specified when cooling coil is present.\n   ** Warning ** AirLoopHVAC:UnitarySystem = ZONE WAREHOUSE FINE B END_B - STORY GROUND PSZ-AC UNITARY AC\n   **   ~~~   ** Method used to determine the heating supply air flow rate is not specified when heating coil is present.\n   ** Warning ** AirLoopHVAC:UnitarySystem = ZONE WAREHOUSE FINE C  - STORY GROUND PSZ-AC UNITARY AC\n   **   ~~~   ** Method used to determine the cooling supply air flow rate is not specified when cooling coil is present.\n   ** Warning ** AirLoopHVAC:UnitarySystem = ZONE WAREHOUSE FINE C  - STORY GROUND PSZ-AC UNITARY AC\n   **   ~~~   ** Method used to determine the heating supply air flow rate is not specified when heating coil is present.\n   ** Warning ** AirLoopHVAC:UnitarySystem = ZONE WAREHOUSE FINE C END_B - STORY GROUND PSZ-AC UNITARY AC\n   **   ~~~   ** Method used to determine the cooling supply air flow rate is not specified when cooling coil is present.\n   ** Warning ** AirLoopHVAC:UnitarySystem = ZONE WAREHOUSE FINE C END_B - STORY GROUND PSZ-AC UNITARY AC\n   **   ~~~   ** Method used to determine the heating supply air flow rate is not specified when heating coil is present.\n   ** Warning ** AirLoopHVAC:UnitarySystem = ZONE WAREHOUSE OFFICE A  - STORY GROUND PSZ-AC UNITARY AC\n   **   ~~~   ** Method used to determine the cooling supply air flow rate is not specified when cooling coil is present.\n   ** Warning ** AirLoopHVAC:UnitarySystem = ZONE WAREHOUSE OFFICE A  - STORY GROUND PSZ-AC UNITARY AC\n   **   ~~~   ** Method used to determine the heating supply air flow rate is not specified when heating coil is present.\n   ** Warning ** AirLoopHVAC:UnitarySystem = ZONE WAREHOUSE OFFICE B  - STORY GROUND PSZ-AC UNITARY AC\n   **   ~~~   ** Method used to determine the cooling supply air flow rate is not specified when cooling coil is present.\n   ** Warning ** AirLoopHVAC:UnitarySystem = ZONE WAREHOUSE OFFICE B  - STORY GROUND PSZ-AC UNITARY AC\n   **   ~~~   ** Method used to determine the heating supply air flow rate is not specified when heating coil is present.\n   ** Warning ** AirLoopHVAC:UnitarySystem = ZONE WAREHOUSE OFFICE C  - STORY GROUND PSZ-AC UNITARY AC\n   **   ~~~   ** Method used to determine the cooling supply air flow rate is not specified when cooling coil is present.\n   ** Warning ** AirLoopHVAC:UnitarySystem = ZONE WAREHOUSE OFFICE C  - STORY GROUND PSZ-AC UNITARY AC\n   **   ~~~   ** Method used to determine the heating supply air flow rate is not specified when heating coil is present.\n   ************* Beginning Plant Sizing Calculations\n   ** Warning ** GetOAControllerInputs: Controller:MechanicalVentilation=\"CONTROLLER MECHANICAL VENTILATION 1\n   **   ~~~   ** Cannot locate a matching DesignSpecification:ZoneAirDistribution object for Zone=\"ZONE WAREHOUSE FINE A  - STORY GROUND\".\n   **   ~~~   ** Using default zone air distribution effectiveness of 1.0 for heating and cooling.\n   ** Warning ** GetOAControllerInputs: Controller:MechanicalVentilation=\"CONTROLLER MECHANICAL VENTILATION 2\n   **   ~~~   ** Cannot locate a matching DesignSpecification:ZoneAirDistribution object for Zone=\"ZONE WAREHOUSE FINE A END_B - STORY GROUND\".\n   **   ~~~   ** Using default zone air distribution effectiveness of 1.0 for heating and cooling.\n   ** Warning ** GetOAControllerInputs: Controller:MechanicalVentilation=\"CONTROLLER MECHANICAL VENTILATION 3\n   **   ~~~   ** Cannot locate a matching DesignSpecification:ZoneAirDistribution object for Zone=\"ZONE WAREHOUSE FINE B  - STORY GROUND\".\n   **   ~~~   ** Using default zone air distribution effectiveness of 1.0 for heating and cooling.\n   ** Warning ** GetOAControllerInputs: Controller:MechanicalVentilation=\"CONTROLLER MECHANICAL VENTILATION 4\n   **   ~~~   ** Cannot locate a matching DesignSpecification:ZoneAirDistribution object for Zone=\"ZONE WAREHOUSE FINE B END_B - STORY GROUND\".\n   **   ~~~   ** Using default zone air distribution effectiveness of 1.0 for heating and cooling.\n   ** Warning ** GetOAControllerInputs: Controller:MechanicalVentilation=\"CONTROLLER MECHANICAL VENTILATION 5\n   **   ~~~   ** Cannot locate a matching DesignSpecification:ZoneAirDistribution object for Zone=\"ZONE WAREHOUSE FINE C  - STORY GROUND\".\n   **   ~~~   ** Using default zone air distribution effectiveness of 1.0 for heating and cooling.\n   ** Warning ** GetOAControllerInputs: Controller:MechanicalVentilation=\"CONTROLLER MECHANICAL VENTILATION 6\n   **   ~~~   ** Cannot locate a matching DesignSpecification:ZoneAirDistribution object for Zone=\"ZONE WAREHOUSE FINE C END_B - STORY GROUND\".\n   **   ~~~   ** Using default zone air distribution effectiveness of 1.0 for heating and cooling.\n   ** Warning ** GetOAControllerInputs: Controller:MechanicalVentilation=\"CONTROLLER MECHANICAL VENTILATION 7\n   **   ~~~   ** Cannot locate a matching DesignSpecification:ZoneAirDistribution object for Zone=\"ZONE WAREHOUSE OFFICE A  - STORY GROUND\".\n   **   ~~~   ** Using default zone air distribution effectiveness of 1.0 for heating and cooling.\n   ** Warning ** GetOAControllerInputs: Controller:MechanicalVentilation=\"CONTROLLER MECHANICAL VENTILATION 8\n   **   ~~~   ** Cannot locate a matching DesignSpecification:ZoneAirDistribution object for Zone=\"ZONE WAREHOUSE OFFICE B  - STORY GROUND\".\n   **   ~~~   ** Using default zone air distribution effectiveness of 1.0 for heating and cooling.\n   ** Warning ** GetOAControllerInputs: Controller:MechanicalVentilation=\"CONTROLLER MECHANICAL VENTILATION 9\n   **   ~~~   ** Cannot locate a matching DesignSpecification:ZoneAirDistribution object for Zone=\"ZONE WAREHOUSE OFFICE C  - STORY GROUND\".\n   **   ~~~   ** Using default zone air distribution effectiveness of 1.0 for heating and cooling.\n   ** Warning ** The Standard Ratings is calculated for Coil:Cooling:DX:SingleSpeed = ZONE WAREHOUSE FINE A  - STORY GROUND PSZ-AC 1SPD DX AC CLG COIL 40KBTU/HR 14.0SEER but not at the AHRI test condition due to curve out of bound.\n   **   ~~~   **  Review the Standard Ratings calculations in the Engineering Reference for this coil type. Also, use Output:Diagnostics, DisplayExtraWarnings for further guidance.\n   ** Warning ** The Standard Ratings is calculated for Coil:Cooling:DX:SingleSpeed = ZONE WAREHOUSE FINE A END_B - STORY GROUND PSZ-AC 1SPD DX AC CLG COIL 13KBTU/HR 14.0SEER but not at the AHRI test condition due to curve out of bound.\n   **   ~~~   **  Review the Standard Ratings calculations in the Engineering Reference for this coil type. Also, use Output:Diagnostics, DisplayExtraWarnings for further guidance.\n   ** Warning ** The Standard Ratings is calculated for Coil:Cooling:DX:SingleSpeed = ZONE WAREHOUSE FINE B  - STORY GROUND PSZ-AC 1SPD DX AC CLG COIL 78KBTU/HR 11.0EER but not at the AHRI test condition due to curve out of bound.\n   **   ~~~   **  Review the Standard Ratings calculations in the Engineering Reference for this coil type. Also, use Output:Diagnostics, DisplayExtraWarnings for further guidance.\n   ** Warning ** The Standard Ratings is calculated for Coil:Cooling:DX:SingleSpeed = ZONE WAREHOUSE FINE B END_B - STORY GROUND PSZ-AC 1SPD DX AC CLG COIL 94KBTU/HR 11.0EER but not at the AHRI test condition due to curve out of bound.\n   **   ~~~   **  Review the Standard Ratings calculations in the Engineering Reference for this coil type. Also, use Output:Diagnostics, DisplayExtraWarnings for further guidance.\n   ** Warning ** The Standard Ratings is calculated for Coil:Cooling:DX:SingleSpeed = ZONE WAREHOUSE FINE C  - STORY GROUND PSZ-AC 1SPD DX AC CLG COIL 26KBTU/HR 14.0SEER but not at the AHRI test condition due to curve out of bound.\n   **   ~~~   **  Review the Standard Ratings calculations in the Engineering Reference for this coil type. Also, use Output:Diagnostics, DisplayExtraWarnings for further guidance.\n   ** Warning ** The Standard Ratings is calculated for Coil:Cooling:DX:SingleSpeed = ZONE WAREHOUSE FINE C END_B - STORY GROUND PSZ-AC 1SPD DX AC CLG COIL 10KBTU/HR 14.0SEER but not at the AHRI test condition due to curve out of bound.\n   **   ~~~   **  Review the Standard Ratings calculations in the Engineering Reference for this coil type. Also, use Output:Diagnostics, DisplayExtraWarnings for further guidance.\n   ** Warning ** The Standard Ratings is calculated for Coil:Cooling:DX:SingleSpeed = ZONE WAREHOUSE OFFICE A  - STORY GROUND PSZ-AC 1SPD DX AC CLG COIL 25KBTU/HR 14.0SEER but not at the AHRI test condition due to curve out of bound.\n   **   ~~~   **  Review the Standard Ratings calculations in the Engineering Reference for this coil type. Also, use Output:Diagnostics, DisplayExtraWarnings for further guidance.\n   ** Warning ** The Standard Ratings is calculated for Coil:Cooling:DX:SingleSpeed = ZONE WAREHOUSE OFFICE B  - STORY GROUND PSZ-AC 1SPD DX AC CLG COIL 141KBTU/HR 10.8EER but not at the AHRI test condition due to curve out of bound.\n   **   ~~~   **  Review the Standard Ratings calculations in the Engineering Reference for this coil type. Also, use Output:Diagnostics, DisplayExtraWarnings for further guidance.\n   ** Warning ** The Standard Ratings is calculated for Coil:Cooling:DX:SingleSpeed = ZONE WAREHOUSE OFFICE C  - STORY GROUND PSZ-AC 1SPD DX AC CLG COIL 14KBTU/HR 14.0SEER but not at the AHRI test condition due to curve out of bound.\n   **   ~~~   **  Review the Standard Ratings calculations in the Engineering Reference for this coil type. Also, use Output:Diagnostics, DisplayExtraWarnings for further guidance.\n   ** Warning ** SizePlantLoop: Calculated Plant Sizing Design Volume Flow Rate=[0.00] is too small. Set to 0.0\n   **   ~~~   ** ..occurs for PlantLoop=MAIN SERVICE WATER LOOP\n   ** Warning ** SizePump: Calculated Pump Nominal Volume Flow Rate=[0.00] is too small. Set to 0.0\n   **   ~~~   ** ..occurs for Pump=MAIN SERVICE WATER LOOP WATER MAINS PRESSURE DRIVEN\n   ** Warning ** Check input. Pump nominal power or motor efficiency is set to 0, for pump=MAIN SERVICE WATER LOOP WATER MAINS PRESSURE DRIVEN\n   ** Warning ** Check input. Pump nominal flow rate is set or calculated = 0, for pump=MAIN SERVICE WATER LOOP WATER MAINS PRESSURE DRIVEN\n   ** Warning ** Output:Meter: invalid Key Name=\"NATURALGAS:FACILITY\" - not found.\n   ** Warning ** Output:Meter: invalid Key Name=\"DISTRICTCOOLING:FACILITY\" - not found.\n   ** Warning ** Output:Meter:MeterFileOnly: invalid Key Name=\"NATURALGAS:FACILITY\" - not found.\n   ** Warning ** Output:Meter:MeterFileOnly: invalid Key Name=\"NATURALGAS:FACILITY\" - not found.\n   ** Warning ** Output:Meter:MeterFileOnly requested for \"Electricity:Facility\" (TimeStep), already on \"Output:Meter\". Will report to both eplusout.eso and eplusout.mtr\n   ************* Testing Individual Branch Integrity\n   ************* All Branches passed integrity testing\n   ************* Testing Individual Supply Air Path Integrity\n   ************* All Supply Air Paths passed integrity testing\n   ************* Testing Individual Return Air Path Integrity\n   ************* All Return Air Paths passed integrity testing\n   ************* No node connection errors were found.\n   ************* Beginning Simulation\n   ** Warning ** In Output:Table:Monthly 'BUILDING ENERGY PERFORMANCE - FUELOILNO1' invalid Variable or Meter Name 'HEATING:FUELOILNO1'\n   ** Warning ** In Output:Table:Monthly 'BUILDING ENERGY PERFORMANCE - FUELOILNO1' invalid Variable or Meter Name 'COOLING:FUELOILNO1'\n   ** Warning ** In Output:Table:Monthly 'BUILDING ENERGY PERFORMANCE - FUELOILNO1' invalid Variable or Meter Name 'INTERIOR LIGHTING:FUELOILNO1'\n   ** Warning ** In Output:Table:Monthly 'BUILDING ENERGY PERFORMANCE - FUELOILNO1' invalid Variable or Meter Name 'EXTERIOR LIGHTING:FUELOILNO1'\n   ** Warning ** In Output:Table:Monthly 'BUILDING ENERGY PERFORMANCE - FUELOILNO1' invalid Variable or Meter Name 'INTERIOR EQUIPMENT:FUELOILNO1'\n   ** Warning ** In Output:Table:Monthly 'BUILDING ENERGY PERFORMANCE - FUELOILNO1' invalid Variable or Meter Name 'EXTERIOR EQUIPMENT:FUELOILNO1'\n   ** Warning ** In Output:Table:Monthly 'BUILDING ENERGY PERFORMANCE - FUELOILNO1' invalid Variable or Meter Name 'FANS:FUELOILNO1'\n   ** Warning ** In Output:Table:Monthly 'BUILDING ENERGY PERFORMANCE - FUELOILNO1' invalid Variable or Meter Name 'PUMPS:FUELOILNO1'\n   ** Warning ** In Output:Table:Monthly 'BUILDING ENERGY PERFORMANCE - FUELOILNO1' invalid Variable or Meter Name 'HEAT REJECTION:FUELOILNO1'\n   ** Warning ** In Output:Table:Monthly 'BUILDING ENERGY PERFORMANCE - FUELOILNO1' invalid Variable or Meter Name 'HUMIDIFICATION:FUELOILNO1'\n   ** Warning ** In Output:Table:Monthly 'BUILDING ENERGY PERFORMANCE - FUELOILNO1' invalid Variable or Meter Name 'HEAT RECOVERY:FUELOILNO1'\n   ** Warning ** In Output:Table:Monthly 'BUILDING ENERGY PERFORMANCE - FUELOILNO1' invalid Variable or Meter Name 'WATER SYSTEMS:FUELOILNO1'\n   ** Warning ** In Output:Table:Monthly 'BUILDING ENERGY PERFORMANCE - FUELOILNO1' invalid Variable or Meter Name 'REFRIGERATION:FUELOILNO1'\n   ** Warning ** In Output:Table:Monthly 'BUILDING ENERGY PERFORMANCE - FUELOILNO1' invalid Variable or Meter Name 'GENERATORS:FUELOILNO1'\n   ** Warning ** In Output:Table:Monthly 'BUILDING ENERGY PERFORMANCE - FUELOILNO2' invalid Variable or Meter Name 'HEATING:FUELOILNO2'\n   ** Warning ** In Output:Table:Monthly 'BUILDING ENERGY PERFORMANCE - FUELOILNO2' invalid Variable or Meter Name 'COOLING:FUELOILNO2'\n   ** Warning ** In Output:Table:Monthly 'BUILDING ENERGY PERFORMANCE - FUELOILNO2' invalid Variable or Meter Name 'INTERIOR LIGHTING:FUELOILNO2'\n   ** Warning ** In Output:Table:Monthly 'BUILDING ENERGY PERFORMANCE - FUELOILNO2' invalid Variable or Meter Name 'EXTERIOR LIGHTING:FUELOILNO2'\n   ** Warning ** In Output:Table:Monthly 'BUILDING ENERGY PERFORMANCE - FUELOILNO2' invalid Variable or Meter Name 'INTERIOR EQUIPMENT:FUELOILNO2'\n   ** Warning ** In Output:Table:Monthly 'BUILDING ENERGY PERFORMANCE - FUELOILNO2' invalid Variable or Meter Name 'EXTERIOR EQUIPMENT:FUELOILNO2'\n   ** Warning ** In Output:Table:Monthly 'BUILDING ENERGY PERFORMANCE - FUELOILNO2' invalid Variable or Meter Name 'FANS:FUELOILNO2'\n   ** Warning ** In Output:Table:Monthly 'BUILDING ENERGY PERFORMANCE - FUELOILNO2' invalid Variable or Meter Name 'PUMPS:FUELOILNO2'\n   ** Warning ** In Output:Table:Monthly 'BUILDING ENERGY PERFORMANCE - FUELOILNO2' invalid Variable or Meter Name 'HEAT REJECTION:FUELOILNO2'\n   ** Warning ** In Output:Table:Monthly 'BUILDING ENERGY PERFORMANCE - FUELOILNO2' invalid Variable or Meter Name 'HUMIDIFICATION:FUELOILNO2'\n   ** Warning ** In Output:Table:Monthly 'BUILDING ENERGY PERFORMANCE - FUELOILNO2' invalid Variable or Meter Name 'HEAT RECOVERY:FUELOILNO2'\n   ** Warning ** In Output:Table:Monthly 'BUILDING ENERGY PERFORMANCE - FUELOILNO2' invalid Variable or Meter Name 'WATER SYSTEMS:FUELOILNO2'\n   ** Warning ** In Output:Table:Monthly 'BUILDING ENERGY PERFORMANCE - FUELOILNO2' invalid Variable or Meter Name 'REFRIGERATION:FUELOILNO2'\n   ** Warning ** In Output:Table:Monthly 'BUILDING ENERGY PERFORMANCE - FUELOILNO2' invalid Variable or Meter Name 'GENERATORS:FUELOILNO2'\n   ** Warning ** In Output:Table:Monthly 'BUILDING ENERGY PERFORMANCE - PROPANEGAS' invalid Variable or Meter Name 'HEATING:PROPANEGAS'\n   ** Warning ** In Output:Table:Monthly 'BUILDING ENERGY PERFORMANCE - PROPANEGAS' invalid Variable or Meter Name 'COOLING:PROPANEGAS'\n   ** Warning ** In Output:Table:Monthly 'BUILDING ENERGY PERFORMANCE - PROPANEGAS' invalid Variable or Meter Name 'INTERIOR LIGHTING:PROPANEGAS'\n   ** Warning ** In Output:Table:Monthly 'BUILDING ENERGY PERFORMANCE - PROPANEGAS' invalid Variable or Meter Name 'EXTERIOR LIGHTING:PROPANEGAS'\n   ** Warning ** In Output:Table:Monthly 'BUILDING ENERGY PERFORMANCE - PROPANEGAS' invalid Variable or Meter Name 'INTERIOR EQUIPMENT:PROPANEGAS'\n   ** Warning ** In Output:Table:Monthly 'BUILDING ENERGY PERFORMANCE - PROPANEGAS' invalid Variable or Meter Name 'EXTERIOR EQUIPMENT:PROPANEGAS'\n   ** Warning ** In Output:Table:Monthly 'BUILDING ENERGY PERFORMANCE - PROPANEGAS' invalid Variable or Meter Name 'FANS:PROPANEGAS'\n   ** Warning ** In Output:Table:Monthly 'BUILDING ENERGY PERFORMANCE - PROPANEGAS' invalid Variable or Meter Name 'PUMPS:PROPANEGAS'\n   ** Warning ** In Output:Table:Monthly 'BUILDING ENERGY PERFORMANCE - PROPANEGAS' invalid Variable or Meter Name 'HEAT REJECTION:PROPANEGAS'\n   ** Warning ** In Output:Table:Monthly 'BUILDING ENERGY PERFORMANCE - PROPANEGAS' invalid Variable or Meter Name 'HUMIDIFICATION:PROPANEGAS'\n   ** Warning ** In Output:Table:Monthly 'BUILDING ENERGY PERFORMANCE - PROPANEGAS' invalid Variable or Meter Name 'HEAT RECOVERY:PROPANEGAS'\n   ** Warning ** In Output:Table:Monthly 'BUILDING ENERGY PERFORMANCE - PROPANEGAS' invalid Variable or Meter Name 'WATER SYSTEMS:PROPANEGAS'\n   ** Warning ** In Output:Table:Monthly 'BUILDING ENERGY PERFORMANCE - PROPANEGAS' invalid Variable or Meter Name 'REFRIGERATION:PROPANEGAS'\n   ** Warning ** In Output:Table:Monthly 'BUILDING ENERGY PERFORMANCE - PROPANEGAS' invalid Variable or Meter Name 'GENERATORS:PROPANEGAS'\n   ** Warning ** In Output:Table:Monthly 'BUILDING ENERGY PERFORMANCE - COAL' invalid Variable or Meter Name 'HEATING:COAL'\n   ** Warning ** In Output:Table:Monthly 'BUILDING ENERGY PERFORMANCE - COAL' invalid Variable or Meter Name 'COOLING:COAL'\n   ** Warning ** In Output:Table:Monthly 'BUILDING ENERGY PERFORMANCE - COAL' invalid Variable or Meter Name 'INTERIOR LIGHTING:COAL'\n   ** Warning ** In Output:Table:Monthly 'BUILDING ENERGY PERFORMANCE - COAL' invalid Variable or Meter Name 'EXTERIOR LIGHTING:COAL'\n   ** Warning ** In Output:Table:Monthly 'BUILDING ENERGY PERFORMANCE - COAL' invalid Variable or Meter Name 'INTERIOR EQUIPMENT:COAL'\n   ** Warning ** In Output:Table:Monthly 'BUILDING ENERGY PERFORMANCE - COAL' invalid Variable or Meter Name 'EXTERIOR EQUIPMENT:COAL'\n   ** Warning ** In Output:Table:Monthly 'BUILDING ENERGY PERFORMANCE - COAL' invalid Variable or Meter Name 'FANS:COAL'\n   ** Warning ** In Output:Table:Monthly 'BUILDING ENERGY PERFORMANCE - COAL' invalid Variable or Meter Name 'PUMPS:COAL'\n   ** Warning ** In Output:Table:Monthly 'BUILDING ENERGY PERFORMANCE - COAL' invalid Variable or Meter Name 'HEAT REJECTION:COAL'\n   ** Warning ** In Output:Table:Monthly 'BUILDING ENERGY PERFORMANCE - COAL' invalid Variable or Meter Name 'HUMIDIFICATION:COAL'\n   ** Warning ** In Output:Table:Monthly 'BUILDING ENERGY PERFORMANCE - COAL' invalid Variable or Meter Name 'HEAT RECOVERY:COAL'\n   ** Warning ** In Output:Table:Monthly 'BUILDING ENERGY PERFORMANCE - COAL' invalid Variable or Meter Name 'WATER SYSTEMS:COAL'\n   ** Warning ** In Output:Table:Monthly 'BUILDING ENERGY PERFORMANCE - COAL' invalid Variable or Meter Name 'REFRIGERATION:COAL'\n   ** Warning ** In Output:Table:Monthly 'BUILDING ENERGY PERFORMANCE - COAL' invalid Variable or Meter Name 'GENERATORS:COAL'\n   ** Warning ** In Output:Table:Monthly 'BUILDING ENERGY PERFORMANCE - DIESEL' invalid Variable or Meter Name 'HEATING:DIESEL'\n   ** Warning ** In Output:Table:Monthly 'BUILDING ENERGY PERFORMANCE - DIESEL' invalid Variable or Meter Name 'COOLING:DIESEL'\n   ** Warning ** In Output:Table:Monthly 'BUILDING ENERGY PERFORMANCE - DIESEL' invalid Variable or Meter Name 'INTERIOR LIGHTING:DIESEL'\n   ** Warning ** In Output:Table:Monthly 'BUILDING ENERGY PERFORMANCE - DIESEL' invalid Variable or Meter Name 'EXTERIOR LIGHTING:DIESEL'\n   ** Warning ** In Output:Table:Monthly 'BUILDING ENERGY PERFORMANCE - DIESEL' invalid Variable or Meter Name 'INTERIOR EQUIPMENT:DIESEL'\n   ** Warning ** In Output:Table:Monthly 'BUILDING ENERGY PERFORMANCE - DIESEL' invalid Variable or Meter Name 'EXTERIOR EQUIPMENT:DIESEL'\n   ** Warning ** In Output:Table:Monthly 'BUILDING ENERGY PERFORMANCE - DIESEL' invalid Variable or Meter Name 'FANS:DIESEL'\n   ** Warning ** In Output:Table:Monthly 'BUILDING ENERGY PERFORMANCE - DIESEL' invalid Variable or Meter Name 'PUMPS:DIESEL'\n   ** Warning ** In Output:Table:Monthly 'BUILDING ENERGY PERFORMANCE - DIESEL' invalid Variable or Meter Name 'HEAT REJECTION:DIESEL'\n   ** Warning ** In Output:Table:Monthly 'BUILDING ENERGY PERFORMANCE - DIESEL' invalid Variable or Meter Name 'HUMIDIFICATION:DIESEL'\n   ** Warning ** In Output:Table:Monthly 'BUILDING ENERGY PERFORMANCE - DIESEL' invalid Variable or Meter Name 'HEAT RECOVERY:DIESEL'\n   ** Warning ** In Output:Table:Monthly 'BUILDING ENERGY PERFORMANCE - DIESEL' invalid Variable or Meter Name 'WATER SYSTEMS:DIESEL'\n   ** Warning ** In Output:Table:Monthly 'BUILDING ENERGY PERFORMANCE - DIESEL' invalid Variable or Meter Name 'REFRIGERATION:DIESEL'\n   ** Warning ** In Output:Table:Monthly 'BUILDING ENERGY PERFORMANCE - DIESEL' invalid Variable or Meter Name 'GENERATORS:DIESEL'\n   ** Warning ** In Output:Table:Monthly 'BUILDING ENERGY PERFORMANCE - GASOLINE' invalid Variable or Meter Name 'HEATING:GASOLINE'\n   ** Warning ** In Output:Table:Monthly 'BUILDING ENERGY PERFORMANCE - GASOLINE' invalid Variable or Meter Name 'COOLING:GASOLINE'\n   ** Warning ** In Output:Table:Monthly 'BUILDING ENERGY PERFORMANCE - GASOLINE' invalid Variable or Meter Name 'INTERIOR LIGHTING:GASOLINE'\n   ** Warning ** In Output:Table:Monthly 'BUILDING ENERGY PERFORMANCE - GASOLINE' invalid Variable or Meter Name 'EXTERIOR LIGHTING:GASOLINE'\n   ** Warning ** In Output:Table:Monthly 'BUILDING ENERGY PERFORMANCE - GASOLINE' invalid Variable or Meter Name 'INTERIOR EQUIPMENT:GASOLINE'\n   ** Warning ** In Output:Table:Monthly 'BUILDING ENERGY PERFORMANCE - GASOLINE' invalid Variable or Meter Name 'EXTERIOR EQUIPMENT:GASOLINE'\n   ** Warning ** In Output:Table:Monthly 'BUILDING ENERGY PERFORMANCE - GASOLINE' invalid Variable or Meter Name 'FANS:GASOLINE'\n   ** Warning ** In Output:Table:Monthly 'BUILDING ENERGY PERFORMANCE - GASOLINE' invalid Variable or Meter Name 'PUMPS:GASOLINE'\n   ** Warning ** In Output:Table:Monthly 'BUILDING ENERGY PERFORMANCE - GASOLINE' invalid Variable or Meter Name 'HEAT REJECTION:GASOLINE'\n   ** Warning ** In Output:Table:Monthly 'BUILDING ENERGY PERFORMANCE - GASOLINE' invalid Variable or Meter Name 'HUMIDIFICATION:GASOLINE'\n   ** Warning ** In Output:Table:Monthly 'BUILDING ENERGY PERFORMANCE - GASOLINE' invalid Variable or Meter Name 'HEAT RECOVERY:GASOLINE'\n   ** Warning ** In Output:Table:Monthly 'BUILDING ENERGY PERFORMANCE - GASOLINE' invalid Variable or Meter Name 'WATER SYSTEMS:GASOLINE'\n   ** Warning ** In Output:Table:Monthly 'BUILDING ENERGY PERFORMANCE - GASOLINE' invalid Variable or Meter Name 'REFRIGERATION:GASOLINE'\n   ** Warning ** In Output:Table:Monthly 'BUILDING ENERGY PERFORMANCE - GASOLINE' invalid Variable or Meter Name 'GENERATORS:GASOLINE'\n   ** Warning ** In Output:Table:Monthly 'BUILDING ENERGY PERFORMANCE - OTHERFUEL1' invalid Variable or Meter Name 'HEATING:OTHERFUEL1'\n   ** Warning ** In Output:Table:Monthly 'BUILDING ENERGY PERFORMANCE - OTHERFUEL1' invalid Variable or Meter Name 'COOLING:OTHERFUEL1'\n   ** Warning ** In Output:Table:Monthly 'BUILDING ENERGY PERFORMANCE - OTHERFUEL1' invalid Variable or Meter Name 'INTERIOR LIGHTING:OTHERFUEL1'\n   ** Warning ** In Output:Table:Monthly 'BUILDING ENERGY PERFORMANCE - OTHERFUEL1' invalid Variable or Meter Name 'EXTERIOR LIGHTING:OTHERFUEL1'\n   ** Warning ** In Output:Table:Monthly 'BUILDING ENERGY PERFORMANCE - OTHERFUEL1' invalid Variable or Meter Name 'INTERIOR EQUIPMENT:OTHERFUEL1'\n   ** Warning ** In Output:Table:Monthly 'BUILDING ENERGY PERFORMANCE - OTHERFUEL1' invalid Variable or Meter Name 'EXTERIOR EQUIPMENT:OTHERFUEL1'\n   ** Warning ** In Output:Table:Monthly 'BUILDING ENERGY PERFORMANCE - OTHERFUEL1' invalid Variable or Meter Name 'FANS:OTHERFUEL1'\n   ** Warning ** In Output:Table:Monthly 'BUILDING ENERGY PERFORMANCE - OTHERFUEL1' invalid Variable or Meter Name 'PUMPS:OTHERFUEL1'\n   ** Warning ** In Output:Table:Monthly 'BUILDING ENERGY PERFORMANCE - OTHERFUEL1' invalid Variable or Meter Name 'HEAT REJECTION:OTHERFUEL1'\n   ** Warning ** In Output:Table:Monthly 'BUILDING ENERGY PERFORMANCE - OTHERFUEL1' invalid Variable or Meter Name 'HUMIDIFICATION:OTHERFUEL1'\n   ** Warning ** In Output:Table:Monthly 'BUILDING ENERGY PERFORMANCE - OTHERFUEL1' invalid Variable or Meter Name 'HEAT RECOVERY:OTHERFUEL1'\n   ** Warning ** In Output:Table:Monthly 'BUILDING ENERGY PERFORMANCE - OTHERFUEL1' invalid Variable or Meter Name 'WATER SYSTEMS:OTHERFUEL1'\n   ** Warning ** In Output:Table:Monthly 'BUILDING ENERGY PERFORMANCE - OTHERFUEL1' invalid Variable or Meter Name 'REFRIGERATION:OTHERFUEL1'\n   ** Warning ** In Output:Table:Monthly 'BUILDING ENERGY PERFORMANCE - OTHERFUEL1' invalid Variable or Meter Name 'GENERATORS:OTHERFUEL1'\n   ** Warning ** In Output:Table:Monthly 'BUILDING ENERGY PERFORMANCE - OTHERFUEL2' invalid Variable or Meter Name 'HEATING:OTHERFUEL2'\n   ** Warning ** In Output:Table:Monthly 'BUILDING ENERGY PERFORMANCE - OTHERFUEL2' invalid Variable or Meter Name 'COOLING:OTHERFUEL2'\n   ** Warning ** In Output:Table:Monthly 'BUILDING ENERGY PERFORMANCE - OTHERFUEL2' invalid Variable or Meter Name 'INTERIOR LIGHTING:OTHERFUEL2'\n   ** Warning ** In Output:Table:Monthly 'BUILDING ENERGY PERFORMANCE - OTHERFUEL2' invalid Variable or Meter Name 'EXTERIOR LIGHTING:OTHERFUEL2'\n   ** Warning ** In Output:Table:Monthly 'BUILDING ENERGY PERFORMANCE - OTHERFUEL2' invalid Variable or Meter Name 'INTERIOR EQUIPMENT:OTHERFUEL2'\n   ** Warning ** In Output:Table:Monthly 'BUILDING ENERGY PERFORMANCE - OTHERFUEL2' invalid Variable or Meter Name 'EXTERIOR EQUIPMENT:OTHERFUEL2'\n   ** Warning ** In Output:Table:Monthly 'BUILDING ENERGY PERFORMANCE - OTHERFUEL2' invalid Variable or Meter Name 'FANS:OTHERFUEL2'\n   ** Warning ** In Output:Table:Monthly 'BUILDING ENERGY PERFORMANCE - OTHERFUEL2' invalid Variable or Meter Name 'PUMPS:OTHERFUEL2'\n   ** Warning ** In Output:Table:Monthly 'BUILDING ENERGY PERFORMANCE - OTHERFUEL2' invalid Variable or Meter Name 'HEAT REJECTION:OTHERFUEL2'\n   ** Warning ** In Output:Table:Monthly 'BUILDING ENERGY PERFORMANCE - OTHERFUEL2' invalid Variable or Meter Name 'HUMIDIFICATION:OTHERFUEL2'\n   ** Warning ** In Output:Table:Monthly 'BUILDING ENERGY PERFORMANCE - OTHERFUEL2' invalid Variable or Meter Name 'HEAT RECOVERY:OTHERFUEL2'\n   ** Warning ** In Output:Table:Monthly 'BUILDING ENERGY PERFORMANCE - OTHERFUEL2' invalid Variable or Meter Name 'WATER SYSTEMS:OTHERFUEL2'\n   ** Warning ** In Output:Table:Monthly 'BUILDING ENERGY PERFORMANCE - OTHERFUEL2' invalid Variable or Meter Name 'REFRIGERATION:OTHERFUEL2'\n   ** Warning ** In Output:Table:Monthly 'BUILDING ENERGY PERFORMANCE - OTHERFUEL2' invalid Variable or Meter Name 'GENERATORS:OTHERFUEL2'\n   ** Warning ** In Output:Table:Monthly 'BUILDING ENERGY PERFORMANCE - ELECTRICITY' invalid Variable or Meter Name 'EXTERIOREQUIPMENT:ELECTRICITY'\n   ** Warning ** In Output:Table:Monthly 'BUILDING ENERGY PERFORMANCE - ELECTRICITY' invalid Variable or Meter Name 'HEATREJECTION:ELECTRICITY'\n   ** Warning ** In Output:Table:Monthly 'BUILDING ENERGY PERFORMANCE - ELECTRICITY' invalid Variable or Meter Name 'HUMIDIFIER:ELECTRICITY'\n   ** Warning ** In Output:Table:Monthly 'BUILDING ENERGY PERFORMANCE - ELECTRICITY' invalid Variable or Meter Name 'COGENERATION:ELECTRICITY'\n   ** Warning ** In Output:Table:Monthly 'BUILDING ENERGY PERFORMANCE - ELECTRICITY' invalid Variable or Meter Name 'REFRIGERATION:ELECTRICITY'\n   ** Warning ** In Output:Table:Monthly 'BUILDING ENERGY PERFORMANCE - NATURAL GAS' invalid Variable or Meter Name 'INTERIOREQUIPMENT:NATURALGAS'\n   ** Warning ** In Output:Table:Monthly 'BUILDING ENERGY PERFORMANCE - NATURAL GAS' invalid Variable or Meter Name 'EXTERIOREQUIPMENT:NATURALGAS'\n   ** Warning ** In Output:Table:Monthly 'BUILDING ENERGY PERFORMANCE - NATURAL GAS' invalid Variable or Meter Name 'HEATING:NATURALGAS'\n   ** Warning ** In Output:Table:Monthly 'BUILDING ENERGY PERFORMANCE - NATURAL GAS' invalid Variable or Meter Name 'COOLING:NATURALGAS'\n   ** Warning ** In Output:Table:Monthly 'BUILDING ENERGY PERFORMANCE - NATURAL GAS' invalid Variable or Meter Name 'WATERSYSTEMS:NATURALGAS'\n   ** Warning ** In Output:Table:Monthly 'BUILDING ENERGY PERFORMANCE - NATURAL GAS' invalid Variable or Meter Name 'COGENERATION:NATURALGAS'\n   ** Warning ** In Output:Table:Monthly 'BUILDING ENERGY PERFORMANCE - DISTRICT HEATING' invalid Variable or Meter Name 'INTERIORLIGHTS:DISTRICTHEATING'\n   ** Warning ** In Output:Table:Monthly 'BUILDING ENERGY PERFORMANCE - DISTRICT HEATING' invalid Variable or Meter Name 'EXTERIORLIGHTS:DISTRICTHEATING'\n   ** Warning ** In Output:Table:Monthly 'BUILDING ENERGY PERFORMANCE - DISTRICT HEATING' invalid Variable or Meter Name 'INTERIOREQUIPMENT:DISTRICTHEATING'\n   ** Warning ** In Output:Table:Monthly 'BUILDING ENERGY PERFORMANCE - DISTRICT HEATING' invalid Variable or Meter Name 'EXTERIOREQUIPMENT:DISTRICTHEATING'\n   ** Warning ** In Output:Table:Monthly 'BUILDING ENERGY PERFORMANCE - DISTRICT HEATING' invalid Variable or Meter Name 'FANS:DISTRICTHEATING'\n   ** Warning ** In Output:Table:Monthly 'BUILDING ENERGY PERFORMANCE - DISTRICT HEATING' invalid Variable or Meter Name 'PUMPS:DISTRICTHEATING'\n   ** Warning ** In Output:Table:Monthly 'BUILDING ENERGY PERFORMANCE - DISTRICT HEATING' invalid Variable or Meter Name 'COOLING:DISTRICTHEATING'\n   ** Warning ** In Output:Table:Monthly 'BUILDING ENERGY PERFORMANCE - DISTRICT HEATING' invalid Variable or Meter Name 'HEATREJECTION:DISTRICTHEATING'\n   ** Warning ** In Output:Table:Monthly 'BUILDING ENERGY PERFORMANCE - DISTRICT HEATING' invalid Variable or Meter Name 'HUMIDIFIER:DISTRICTHEATING'\n   ** Warning ** In Output:Table:Monthly 'BUILDING ENERGY PERFORMANCE - DISTRICT HEATING' invalid Variable or Meter Name 'HEATRECOVERY:DISTRICTHEATING'\n   ** Warning ** In Output:Table:Monthly 'BUILDING ENERGY PERFORMANCE - DISTRICT HEATING' invalid Variable or Meter Name 'WATERSYSTEMS:DISTRICTHEATING'\n   ** Warning ** In Output:Table:Monthly 'BUILDING ENERGY PERFORMANCE - DISTRICT HEATING' invalid Variable or Meter Name 'COGENERATION:DISTRICTHEATING'\n   ** Warning ** In Output:Table:Monthly 'BUILDING ENERGY PERFORMANCE - DISTRICT COOLING' invalid Variable or Meter Name 'INTERIORLIGHTS:DISTRICTCOOLING'\n   ** Warning ** In Output:Table:Monthly 'BUILDING ENERGY PERFORMANCE - DISTRICT COOLING' invalid Variable or Meter Name 'EXTERIORLIGHTS:DISTRICTCOOLING'\n   ** Warning ** In Output:Table:Monthly 'BUILDING ENERGY PERFORMANCE - DISTRICT COOLING' invalid Variable or Meter Name 'INTERIOREQUIPMENT:DISTRICTCOOLING'\n   ** Warning ** In Output:Table:Monthly 'BUILDING ENERGY PERFORMANCE - DISTRICT COOLING' invalid Variable or Meter Name 'EXTERIOREQUIPMENT:DISTRICTCOOLING'\n   ** Warning ** In Output:Table:Monthly 'BUILDING ENERGY PERFORMANCE - DISTRICT COOLING' invalid Variable or Meter Name 'FANS:DISTRICTCOOLING'\n   ** Warning ** In Output:Table:Monthly 'BUILDING ENERGY PERFORMANCE - DISTRICT COOLING' invalid Variable or Meter Name 'PUMPS:DISTRICTCOOLING'\n   ** Warning ** In Output:Table:Monthly 'BUILDING ENERGY PERFORMANCE - DISTRICT COOLING' invalid Variable or Meter Name 'HEATING:DISTRICTCOOLING'\n   ** Warning ** In Output:Table:Monthly 'BUILDING ENERGY PERFORMANCE - DISTRICT COOLING' invalid Variable or Meter Name 'COOLING:DISTRICTCOOLING'\n   ** Warning ** In Output:Table:Monthly 'BUILDING ENERGY PERFORMANCE - DISTRICT COOLING' invalid Variable or Meter Name 'HEATREJECTION:DISTRICTCOOLING'\n   ** Warning ** In Output:Table:Monthly 'BUILDING ENERGY PERFORMANCE - DISTRICT COOLING' invalid Variable or Meter Name 'HUMIDIFIER:DISTRICTCOOLING'\n   ** Warning ** In Output:Table:Monthly 'BUILDING ENERGY PERFORMANCE - DISTRICT COOLING' invalid Variable or Meter Name 'HEATRECOVERY:DISTRICTCOOLING'\n   ** Warning ** In Output:Table:Monthly 'BUILDING ENERGY PERFORMANCE - DISTRICT COOLING' invalid Variable or Meter Name 'WATERSYSTEMS:DISTRICTCOOLING'\n   ** Warning ** In Output:Table:Monthly 'BUILDING ENERGY PERFORMANCE - DISTRICT COOLING' invalid Variable or Meter Name 'COGENERATION:DISTRICTCOOLING'\n   ** Warning ** In Output:Table:Monthly 'BUILDING ENERGY PERFORMANCE - ELECTRICITY PEAK DEMAND' invalid Variable or Meter Name 'EXTERIOREQUIPMENT:ELECTRICITY'\n   ** Warning ** In Output:Table:Monthly 'BUILDING ENERGY PERFORMANCE - ELECTRICITY PEAK DEMAND' invalid Variable or Meter Name 'HEATREJECTION:ELECTRICITY'\n   ** Warning ** In Output:Table:Monthly 'BUILDING ENERGY PERFORMANCE - ELECTRICITY PEAK DEMAND' invalid Variable or Meter Name 'HUMIDIFIER:ELECTRICITY'\n   ** Warning ** In Output:Table:Monthly 'BUILDING ENERGY PERFORMANCE - ELECTRICITY PEAK DEMAND' invalid Variable or Meter Name 'COGENERATION:ELECTRICITY'\n   ** Warning ** In Output:Table:Monthly 'BUILDING ENERGY PERFORMANCE - NATURAL GAS PEAK DEMAND' invalid Variable or Meter Name 'NATURALGAS:FACILITY'\n   ** Warning ** In Output:Table:Monthly 'BUILDING ENERGY PERFORMANCE - NATURAL GAS PEAK DEMAND' invalid Variable or Meter Name 'INTERIOREQUIPMENT:NATURALGAS'\n   ** Warning ** In Output:Table:Monthly 'BUILDING ENERGY PERFORMANCE - NATURAL GAS PEAK DEMAND' invalid Variable or Meter Name 'EXTERIOREQUIPMENT:NATURALGAS'\n   ** Warning ** In Output:Table:Monthly 'BUILDING ENERGY PERFORMANCE - NATURAL GAS PEAK DEMAND' invalid Variable or Meter Name 'HEATING:NATURALGAS'\n   ** Warning ** In Output:Table:Monthly 'BUILDING ENERGY PERFORMANCE - NATURAL GAS PEAK DEMAND' invalid Variable or Meter Name 'COOLING:NATURALGAS'\n   ** Warning ** In Output:Table:Monthly 'BUILDING ENERGY PERFORMANCE - NATURAL GAS PEAK DEMAND' invalid Variable or Meter Name 'WATERSYSTEMS:NATURALGAS'\n   ** Warning ** In Output:Table:Monthly 'BUILDING ENERGY PERFORMANCE - NATURAL GAS PEAK DEMAND' invalid Variable or Meter Name 'COGENERATION:NATURALGAS'\n   ** Warning ** In Output:Table:Monthly 'BUILDING ENERGY PERFORMANCE - DISTRICT HEATING PEAK DEMAND' invalid Variable or Meter Name 'INTERIORLIGHTS:DISTRICTHEATING'\n   ** Warning ** In Output:Table:Monthly 'BUILDING ENERGY PERFORMANCE - DISTRICT HEATING PEAK DEMAND' invalid Variable or Meter Name 'EXTERIORLIGHTS:DISTRICTHEATING'\n   ** Warning ** In Output:Table:Monthly 'BUILDING ENERGY PERFORMANCE - DISTRICT HEATING PEAK DEMAND' invalid Variable or Meter Name 'INTERIOREQUIPMENT:DISTRICTHEATING'\n   ** Warning ** In Output:Table:Monthly 'BUILDING ENERGY PERFORMANCE - DISTRICT HEATING PEAK DEMAND' invalid Variable or Meter Name 'EXTERIOREQUIPMENT:DISTRICTHEATING'\n   ** Warning ** In Output:Table:Monthly 'BUILDING ENERGY PERFORMANCE - DISTRICT HEATING PEAK DEMAND' invalid Variable or Meter Name 'FANS:DISTRICTHEATING'\n   ** Warning ** In Output:Table:Monthly 'BUILDING ENERGY PERFORMANCE - DISTRICT HEATING PEAK DEMAND' invalid Variable or Meter Name 'PUMPS:DISTRICTHEATING'\n   ** Warning ** In Output:Table:Monthly 'BUILDING ENERGY PERFORMANCE - DISTRICT HEATING PEAK DEMAND' invalid Variable or Meter Name 'COOLING:DISTRICTHEATING'\n   ** Warning ** In Output:Table:Monthly 'BUILDING ENERGY PERFORMANCE - DISTRICT HEATING PEAK DEMAND' invalid Variable or Meter Name 'HEATREJECTION:DISTRICTHEATING'\n   ** Warning ** In Output:Table:Monthly 'BUILDING ENERGY PERFORMANCE - DISTRICT HEATING PEAK DEMAND' invalid Variable or Meter Name 'HUMIDIFIER:DISTRICTHEATING'\n   ** Warning ** In Output:Table:Monthly 'BUILDING ENERGY PERFORMANCE - DISTRICT HEATING PEAK DEMAND' invalid Variable or Meter Name 'HEATRECOVERY:DISTRICTHEATING'\n   ** Warning ** In Output:Table:Monthly 'BUILDING ENERGY PERFORMANCE - DISTRICT HEATING PEAK DEMAND' invalid Variable or Meter Name 'WATERSYSTEMS:DISTRICTHEATING'\n   ** Warning ** In Output:Table:Monthly 'BUILDING ENERGY PERFORMANCE - DISTRICT HEATING PEAK DEMAND' invalid Variable or Meter Name 'COGENERATION:DISTRICTHEATING'\n   ** Warning ** In Output:Table:Monthly 'BUILDING ENERGY PERFORMANCE - DISTRICT COOLING PEAK DEMAND' invalid Variable or Meter Name 'DISTRICTCOOLING:FACILITY'\n   ** Warning ** In Output:Table:Monthly 'BUILDING ENERGY PERFORMANCE - DISTRICT COOLING PEAK DEMAND' invalid Variable or Meter Name 'INTERIORLIGHTS:DISTRICTCOOLING'\n   ** Warning ** In Output:Table:Monthly 'BUILDING ENERGY PERFORMANCE - DISTRICT COOLING PEAK DEMAND' invalid Variable or Meter Name 'EXTERIORLIGHTS:DISTRICTCOOLING'\n   ** Warning ** In Output:Table:Monthly 'BUILDING ENERGY PERFORMANCE - DISTRICT COOLING PEAK DEMAND' invalid Variable or Meter Name 'INTERIOREQUIPMENT:DISTRICTCOOLING'\n   ** Warning ** In Output:Table:Monthly 'BUILDING ENERGY PERFORMANCE - DISTRICT COOLING PEAK DEMAND' invalid Variable or Meter Name 'EXTERIOREQUIPMENT:DISTRICTCOOLING'\n   ** Warning ** In Output:Table:Monthly 'BUILDING ENERGY PERFORMANCE - DISTRICT COOLING PEAK DEMAND' invalid Variable or Meter Name 'FANS:DISTRICTCOOLING'\n   ** Warning ** In Output:Table:Monthly 'BUILDING ENERGY PERFORMANCE - DISTRICT COOLING PEAK DEMAND' invalid Variable or Meter Name 'PUMPS:DISTRICTCOOLING'\n   ** Warning ** In Output:Table:Monthly 'BUILDING ENERGY PERFORMANCE - DISTRICT COOLING PEAK DEMAND' invalid Variable or Meter Name 'HEATING:DISTRICTCOOLING'\n   ** Warning ** In Output:Table:Monthly 'BUILDING ENERGY PERFORMANCE - DISTRICT COOLING PEAK DEMAND' invalid Variable or Meter Name 'COOLING:DISTRICTCOOLING'\n   ** Warning ** In Output:Table:Monthly 'BUILDING ENERGY PERFORMANCE - DISTRICT COOLING PEAK DEMAND' invalid Variable or Meter Name 'HEATREJECTION:DISTRICTCOOLING'\n   ** Warning ** In Output:Table:Monthly 'BUILDING ENERGY PERFORMANCE - DISTRICT COOLING PEAK DEMAND' invalid Variable or Meter Name 'HUMIDIFIER:DISTRICTCOOLING'\n   ** Warning ** In Output:Table:Monthly 'BUILDING ENERGY PERFORMANCE - DISTRICT COOLING PEAK DEMAND' invalid Variable or Meter Name 'HEATRECOVERY:DISTRICTCOOLING'\n   ** Warning ** In Output:Table:Monthly 'BUILDING ENERGY PERFORMANCE - DISTRICT COOLING PEAK DEMAND' invalid Variable or Meter Name 'WATERSYSTEMS:DISTRICTCOOLING'\n   ** Warning ** In Output:Table:Monthly 'BUILDING ENERGY PERFORMANCE - DISTRICT COOLING PEAK DEMAND' invalid Variable or Meter Name 'COGENERATION:DISTRICTCOOLING'\n   ** Warning ** Processing Monthly Tabular Reports: Variable names not valid for this simulation\n   **   ~~~   ** ...use Output:Diagnostics,DisplayExtraWarnings; to show more details on individual variables.\n   ** Warning ** CalcOAController: Minimum OA fraction > Mechanical Ventilation Controller request for Controller:OutdoorAir=ZONE WAREHOUSE OFFICE A  - STORY GROUND PSZ-AC OA SYSTEM CONTROLLER, Min OA fraction is used.\n   **   ~~~   ** This may be overriding desired ventilation controls. Check inputs for Minimum Outdoor Air Flow Rate, Minimum Outdoor Air Schedule Name and Controller:MechanicalVentilation\n   **   ~~~   ** Minimum OA fraction = 1.7554E-002, Mech Vent OA fraction = 1.0065E-002\n   **   ~~~   **  Environment=RUN PERIOD 1, at Simulation time=01/01 06:50 - 07:00\n   ** Warning ** CalcOAController: Minimum OA fraction > Mechanical Ventilation Controller request for Controller:OutdoorAir=ZONE WAREHOUSE OFFICE B  - STORY GROUND PSZ-AC OA SYSTEM CONTROLLER, Min OA fraction is used.\n   **   ~~~   ** This may be overriding desired ventilation controls. Check inputs for Minimum Outdoor Air Flow Rate, Minimum Outdoor Air Schedule Name and Controller:MechanicalVentilation\n   **   ~~~   ** Minimum OA fraction = 3.5654E-002, Mech Vent OA fraction = 1.9453E-002\n   **   ~~~   **  Environment=RUN PERIOD 1, at Simulation time=01/01 06:50 - 07:00\n   ** Warning ** CalcOAController: Minimum OA fraction > Mechanical Ventilation Controller request for Controller:OutdoorAir=ZONE WAREHOUSE OFFICE C  - STORY GROUND PSZ-AC OA SYSTEM CONTROLLER, Min OA fraction is used.\n   **   ~~~   ** This may be overriding desired ventilation controls. Check inputs for Minimum Outdoor Air Flow Rate, Minimum Outdoor Air Schedule Name and Controller:MechanicalVentilation\n   **   ~~~   ** Minimum OA fraction = 3.0319E-002, Mech Vent OA fraction = 2.4890E-002\n   **   ~~~   **  Environment=RUN PERIOD 1, at Simulation time=01/01 06:50 - 07:00\n   ** Warning ** HeatExchanger:AirToAir:SensibleAndLatent \"ZONE WAREHOUSE FINE B  - STORY GROUND PSZ-AC ERV\"\n   **   ~~~   ** Average air volume flow rate is <50% or >130% of the nominal HX supply air volume flow rate.\n   **   ~~~   ** Air volume flow rate ratio = 37733253672291808.. Environment=RUN PERIOD 1, at Simulation time=01/21 19:00 - 19:05\n   ** Warning ** The resource referenced by LifeCycleCost:UsePriceEscalation= \"U.S. AVG  COMMERCIAL-ELECTRICITY\" has no energy cost. \n   **   ~~~   ** ... It is likely that the wrong resource is used. The resource should match the meter used in Utility:Tariff.\n   ** Warning ** The resource referenced by LifeCycleCost:UsePriceEscalation= \"U.S. AVG  COMMERCIAL-DISTILLATE OIL\" has no energy cost. \n   **   ~~~   ** ... It is likely that the wrong resource is used. The resource should match the meter used in Utility:Tariff.\n   ** Warning ** The resource referenced by LifeCycleCost:UsePriceEscalation= \"U.S. AVG  COMMERCIAL-RESIDUAL OIL\" has no energy cost. \n   **   ~~~   ** ... It is likely that the wrong resource is used. The resource should match the meter used in Utility:Tariff.\n   ** Warning ** The resource referenced by LifeCycleCost:UsePriceEscalation= \"U.S. AVG  COMMERCIAL-NATURAL GAS\" has no energy cost. \n   **   ~~~   ** ... It is likely that the wrong resource is used. The resource should match the meter used in Utility:Tariff.\n   ** Warning ** The resource referenced by LifeCycleCost:UsePriceEscalation= \"U.S. AVG  COMMERCIAL-COAL\" has no energy cost. \n   **   ~~~   ** ... It is likely that the wrong resource is used. The resource should match the meter used in Utility:Tariff.\n   ************* Simulation Error Summary *************\n   ************* There are 15 unused schedules in input.\n   ************* There are 24 unused week schedules in input.\n   ************* There are 54 unused day schedules in input.\n   ************* Use Output:Diagnostics,DisplayUnusedSchedules; to see them.\n   *************\n   ************* ===== Recurring Error Summary =====\n   ************* The following recurring error messages occurred.\n   *************\n   *************  ** Warning ** Controller:OutdoorAir=\"ZONE WAREHOUSE OFFICE A  - STORY GROUND PSZ-AC OA SYSTEM CONTROLLER\": Min OA fraction > Mechanical ventilation OA fraction, continues...\n   *************  **   ~~~   **   This error occurred 265 total times;\n   *************  **   ~~~   **   during Warmup 0 times;\n   *************  **   ~~~   **   during Sizing 0 times.\n   *************  **   ~~~   **   Max=1.755401E-002  Min=1.755401E-002\n   *************\n   *************  ** Warning ** Controller:OutdoorAir=\"ZONE WAREHOUSE OFFICE B  - STORY GROUND PSZ-AC OA SYSTEM CONTROLLER\": Min OA fraction > Mechanical ventilation OA fraction, continues...\n   *************  **   ~~~   **   This error occurred 260 total times;\n   *************  **   ~~~   **   during Warmup 0 times;\n   *************  **   ~~~   **   during Sizing 0 times.\n   *************  **   ~~~   **   Max=3.565437E-002  Min=3.565437E-002\n   *************\n   *************  ** Warning ** Controller:OutdoorAir=\"ZONE WAREHOUSE OFFICE C  - STORY GROUND PSZ-AC OA SYSTEM CONTROLLER\": Min OA fraction > Mechanical ventilation OA fraction, continues...\n   *************  **   ~~~   **   This error occurred 259 total times;\n   *************  **   ~~~   **   during Warmup 0 times;\n   *************  **   ~~~   **   during Sizing 0 times.\n   *************  **   ~~~   **   Max=3.031864E-002  Min=3.031864E-002\n   *************\n   *************  ** Warning ** HeatExchanger:AirToAir:SensibleAndLatent \"ZONE WAREHOUSE FINE B  - STORY GROUND PSZ-AC ERV\":  Average air volume flow rate is <50% or >130% warning continues. Air flow rate ratio statistics follow.\n   *************  **   ~~~   **   This error occurred 53 total times;\n   *************  **   ~~~   **   during Warmup 0 times;\n   *************  **   ~~~   **   during Sizing 0 times.\n   *************  **   ~~~   **   Max=37733253672291808.  Min=17031169892192.\n   *************\n   *************\n   ************* ===== Final Error Summary =====\n   ************* The following error categories occurred.  Consider correcting or noting.\n   ************* Nominally Unused Constructions\n   ************* ..The nominally unused constructions warning is provided to alert you to potential conditions that can cause\n   ************* ..extra time during simulation. Each construction is calculated by the algorithm indicated in the HeatBalanceAlgorithm\n   ************* ..object. You may remove the constructions indicated (when you use the DisplayExtraWarnings option).\n   *************\n   ************* EnergyPlus Warmup Error Summary. During Warmup: 0 Warning; 0 Severe Errors.\n   ************* EnergyPlus Sizing Error Summary. During Sizing: 42 Warning; 1 Severe Errors.\n   ************* EnergyPlus Completed Successfully-- 1101 Warning; 1 Severe Errors; Elapsed Time=00hr 00min 42.26sec\n",
   "file_paths" : 
   [
      "/private/var/folders/cj/vhw1_9g1151dh76sjlgdyq19k7f3h5/T/osmodel-1682358120-2/resources/generated_files",
      "./files",
      "./weather",
      "../../files",
      "../../weather",
      "./"
   ],
   "hash" : "AACB15EF",
   "seed_file" : "../20_Hangar.osm",
   "started_at" : "20230424T174619Z",
   "steps" : 
   [
      {
         "arguments" : 
         {
            "bldg_type_a" : "Warehouse",
            "climate_zone" : "ASHRAE 169-2013-8A",
            "floor_height" : 60,
            "ns_to_ew_ratio" : 1.5,
            "num_stories_above_grade" : 1,
            "template" : "90.1-2016",
            "total_bldg_floor_area" : 70000,
            "wwr" : 0.14999999999999999
         },
         "description" : "Creates one or more rectangular building elements based on space type ratios of selected mix of building types, along with user arguments that describe the desired geometry characteristics.",
         "measure_dir_name" : "create_bar_from_building_type_ratios",
         "modeler_description" : "The building floor area can be described as a footprint size or as a total building area. The shape can be described by its aspect ratio or can be defined as a set width. Because this measure contains both DOE and DEER inputs, care needs to be taken to choose a template compatable with the selected building types. See readme document for additional guidance.",
         "name" : "Create Bar From Building Type Ratios",
         "result" : 
         {
            "completed_at" : "20230424T174624Z",
            "measure_class_name" : "CreateBarFromBuildingTypeRatios",
            "measure_display_name" : "Create Bar From Building Type Ratios",
            "measure_name" : "create_bar_from_building_type_ratios",
            "measure_taxonomy" : "Envelope.Form",
            "measure_type" : "ModelMeasure",
            "measure_uid" : "6e3a14f8-c3c7-4e03-bc51-bef8a52e1a05",
            "measure_version_id" : "284657fc-3c1a-44b5-a173-4c83ed184791",
            "measure_version_modified" : "20220706T134207Z",
            "measure_xml_checksum" : "2AF3A68E",
            "started_at" : "20230424T174624Z",
            "stderr" : "",
            "stdout" : "",
            "step_errors" : [],
            "step_files" : [],
            "step_final_condition" : "The building finished with 15 spaces.",
            "step_info" : 
            [
               "0.0 value for minimum perimeter multiplier will be replaced with smart default for Warehouse of 1.0.",
               "Removed 374 non resource objects from the model.",
               "Creating Space Types for Warehouse.",
               "Making bar with length of 324 ft and width of 216 ft",
               "Intersecting and matching surfaces in model, this will create additional geometry.",
               "Created bar envelope with floor area of 70,000 ft^2. Total building area is 70,000 ft^2."
            ],
            "step_initial_condition" : "The building started with 6 spaces.",
            "step_result" : "Success",
            "step_values" : 
            [
               {
                  "name" : "bldg_type_a",
                  "value" : "Warehouse"
               },
               {
                  "name" : "bldg_subtype_a",
                  "value" : "NA"
               },
               {
                  "name" : "bldg_type_a_num_units",
                  "value" : 1
               },
               {
                  "name" : "bldg_type_b",
                  "value" : "SmallOffice"
               },
               {
                  "name" : "bldg_subtype_b",
                  "value" : "NA"
               },
               {
                  "name" : "bldg_type_b_fract_bldg_area",
                  "value" : 0.0
               },
               {
                  "name" : "bldg_type_b_num_units",
                  "value" : 1
               },
               {
                  "name" : "bldg_type_c",
                  "value" : "SmallOffice"
               },
               {
                  "name" : "bldg_subtype_c",
                  "value" : "NA"
               },
               {
                  "name" : "bldg_type_c_fract_bldg_area",
                  "value" : 0.0
               },
               {
                  "name" : "bldg_type_c_num_units",
                  "value" : 1
               },
               {
                  "name" : "bldg_type_d",
                  "value" : "SmallOffice"
               },
               {
                  "name" : "bldg_subtype_d",
                  "value" : "NA"
               },
               {
                  "name" : "bldg_type_d_fract_bldg_area",
                  "value" : 0.0
               },
               {
                  "name" : "bldg_type_d_num_units",
                  "value" : 1
               },
               {
                  "name" : "single_floor_area",
                  "value" : 0.0
               },
               {
                  "name" : "total_bldg_floor_area",
                  "value" : 70000.0
               },
               {
                  "name" : "floor_height",
                  "value" : 60.0
               },
               {
                  "name" : "custom_height_bar",
                  "value" : true
               },
               {
                  "name" : "num_stories_above_grade",
                  "value" : 1.0
               },
               {
                  "name" : "num_stories_below_grade",
                  "value" : 0
               },
               {
                  "name" : "building_rotation",
                  "value" : 0.0
               },
               {
                  "name" : "template",
                  "value" : "90.1-2016"
               },
               {
                  "name" : "ns_to_ew_ratio",
                  "value" : 1.5
               },
               {
                  "name" : "perim_mult",
                  "value" : 0.0
               },
               {
                  "name" : "bar_sep_dist_mult",
                  "value" : 10.0
               },
               {
                  "name" : "wwr",
                  "value" : 0.14999999999999999
               },
               {
                  "name" : "party_wall_fraction",
                  "value" : 0.0
               },
               {
                  "name" : "party_wall_stories_north",
                  "value" : 0
               },
               {
                  "name" : "party_wall_stories_south",
                  "value" : 0
               },
               {
                  "name" : "party_wall_stories_east",
                  "value" : 0
               },
               {
                  "name" : "party_wall_stories_west",
                  "value" : 0
               },
               {
                  "name" : "neighbor_height_method",
                  "value" : "Absolute"
               },
               {
                  "name" : "building_height_relative_to_neighbors",
                  "value" : 0.0
               },
               {
                  "name" : "neighbor_height_north",
                  "value" : 0.0
               },
               {
                  "name" : "neighbor_height_south",
                  "value" : 0.0
               },
               {
                  "name" : "neighbor_height_east",
                  "value" : 0.0
               },
               {
                  "name" : "neighbor_height_west",
                  "value" : 0.0
               },
               {
                  "name" : "neighbor_offset_north",
                  "value" : 0.0
               },
               {
                  "name" : "neighbor_offset_south",
                  "value" : 0.0
               },
               {
                  "name" : "neighbor_offset_east",
                  "value" : 0.0
               },
               {
                  "name" : "neighbor_offset_west",
                  "value" : 0.0
               },
               {
                  "name" : "bottom_story_ground_exposed_floor",
                  "value" : true
               },
               {
                  "name" : "top_story_exterior_exposed_roof",
                  "value" : true
               },
               {
                  "name" : "story_multiplier",
                  "value" : "Basements Ground Mid Top"
               },
               {
                  "name" : "make_mid_story_surfaces_adiabatic",
                  "value" : false
               },
               {
                  "name" : "bar_division_method",
                  "value" : "Multiple Space Types - Individual Stories Sliced"
               },
               {
                  "name" : "double_loaded_corridor",
                  "value" : "Primary Space Type"
               },
               {
                  "name" : "space_type_sort_logic",
                  "value" : "Building Type > Size"
               },
               {
                  "name" : "use_upstream_args",
                  "value" : true
               },
               {
                  "name" : "climate_zone",
                  "value" : "ASHRAE 169-2013-8A"
               },
               {
                  "name" : "wall_area_ip",
                  "units" : "ft^2",
                  "value" : 64807.406984078574
               },
               {
                  "name" : "ns_wall_area_ip",
                  "units" : "ft^2",
                  "value" : 38884.444190447168
               },
               {
                  "name" : "ew_wall_area_ip",
                  "units" : "ft^2",
                  "value" : 25922.962793631406
               },
               {
                  "name" : "floor_area_to_perim_ratio",
                  "value" : 19.753297648747136
               },
               {
                  "name" : "bar_width",
                  "units" : "ft",
                  "value" : 216.02468994692862
               }
            ],
            "step_warnings" : []
         }
      },
      {
         "arguments" : 
         {
            "add_elevators" : false,
            "add_exterior_lights" : false,
            "add_refrigeration" : false,
            "climate_zone" : "ASHRAE 169-2013-8A",
            "exterior_lighting_zone" : "0 - Undeveloped Areas Parks",
            "htg_src" : "DistrictHeating",
            "hvac_delivery_type" : "Forced Air",
            "kitchen_makeup" : "None",
            "modify_wkdy_op_hrs" : true,
            "modify_wknd_op_hrs" : false,
            "onsite_parking_fraction" : 0,
            "system_type" : "PSZ-AC with district hot water",
            "template" : "90.1-2016",
            "wall_construction_type" : "Mass",
            "wkdy_op_hrs_duration" : 24,
            "wkdy_op_hrs_start_time" : 24,
            "wknd_op_hrs_duration" : 24,
            "wknd_op_hrs_start_time" : 24
         },
         "description" : "Takes a model with space and stub space types, and assigns constructions, schedules, internal loads, hvac, and other loads such as exterior lights and service water heating.",
         "measure_dir_name" : "create_typical_building_from_model 1",
         "modeler_description" : "It is important that the template argument chosen for this measure is in line with the building types for the stub space types of the model passed in.",
         "name" : "Create Typical Building from Model",
         "result" : 
         {
            "completed_at" : "20230424T174727Z",
            "measure_class_name" : "CreateTypicalBuildingFromModel",
            "measure_display_name" : "Create Typical Building from Model",
            "measure_name" : "create_typical_building_from_model",
            "measure_taxonomy" : "Whole Building.Space Types",
            "measure_type" : "ModelMeasure",
            "measure_uid" : "339a2e3a-273c-4494-bb50-bfe586a0647c",
            "measure_version_id" : "3a5df9be-08ca-4108-af82-2e1aaa539a88",
            "measure_version_modified" : "20220913T124426Z",
            "measure_xml_checksum" : "EE13F09F",
            "started_at" : "20230424T174624Z",
            "stderr" : "",
            "stdout" : "",
            "step_errors" : [],
            "step_files" : [],
            "step_final_condition" : "The building finished with 1563 objects.",
            "step_info" : 
            [
               "Replacing argument named climate_zone from current measure with a value of ASHRAE 169-2013-8A from Create Bar From Building Type Ratios.",
               "Replacing argument named template from current measure with a value of 90.1-2016 from Create Bar From Building Type Ratios.",
               "Weekday start time of  plus duration of 24.0 is more than 24 hrs, hours of operation overlap midnight.",
               "Using climate zone ASHRAE 169-2013-8A from user arguments",
               "Adding loads to space type named Office Attic - 90.1-2016",
               "Adding loads to space type named Office WholeBuilding - Sm Office - 90.1-2016",
               "Adding loads to space type named Warehouse Bulk - 90.1-2016",
               "Adding loads to space type named Warehouse Fine - 90.1-2016",
               "Adding loads to space type named Warehouse Office - 90.1-2016",
               "Using climate zone ASHRAE 169-2013-8A from user arguments",
               "Set FC factor constructions for slab and below grade walls.",
               "Adding default construction set named 90.1-2016 - Warehouse - ASHRAE 169-2013-8A",
               "Set exterior wall construction to Typical Insulated Exterior Mass Wall R-20.83, replacing building type default Typical Insulated Metal Building Wall R-16.67.",
               "Assigning Office WholeBuilding - Sm Office - 90.1-2016 Thermostat to thermal zones with Office WholeBuilding - Sm Office - 90.1-2016 assigned.",
               "Assigning Warehouse Bulk - 90.1-2016 Thermostat to thermal zones with Warehouse Bulk - 90.1-2016 assigned.",
               "Assigning Warehouse Fine - 90.1-2016 Thermostat to thermal zones with Warehouse Fine - 90.1-2016 assigned.",
               "Assigning Warehouse Office - 90.1-2016 Thermostat to thermal zones with Warehouse Office - 90.1-2016 assigned.",
               "Updated 16 schedules with new hours of operation.",
               "Using OpenStudio Standards version 0.3.0 with template 90.1-2016.",
               "Loading OpenStudio Standards data for 90.1-2016",
               "Office Attic had no ventilation specification, one has been created.",
               "Office Attic set infiltration schedule to OfficeLarge INFIL_SCH_PNNL.",
               "Office WholeBuilding - Sm Office had no people, one has been created.",
               "Office WholeBuilding - Sm Office set occupancy to 5.6 people/1000 ft^2.",
               "Office WholeBuilding - Sm Office had no lights, one has been created.",
               "Office WholeBuilding - Sm Office set LPD to 0.79 W/ft^2.",
               "Office WholeBuilding - Sm Office had no electric equipment, one has been created.",
               "Office WholeBuilding - Sm Office set electric EPD to 0.63 W/ft^2.",
               "Office WholeBuilding - Sm Office had no ventilation specification, one has been created.",
               "Office WholeBuilding - Sm Office set ventilation per area to 0.085 cfm/ft^2.",
               "Office WholeBuilding - Sm Office set occupancy schedule to OfficeSmall BLDG_OCC_SCH.",
               "Office WholeBuilding - Sm Office set occupant activity schedule to OfficeSmall ACTIVITY_SCH.",
               "Office WholeBuilding - Sm Office set lighting schedule to OfficeSmall BLDG_LIGHT_SCH_2013.",
               "Office WholeBuilding - Sm Office set electric equipment schedule to OfficeSmall BLDG_EQUIP_SCH_2013.",
               "Office WholeBuilding - Sm Office set infiltration schedule to OfficeSmall INFIL_QUARTER_ON_SCH.",
               "Warehouse Bulk had no lights, one has been created.",
               "Warehouse Bulk set LPD to 0.35 W/ft^2.",
               "Warehouse Bulk had no electric equipment, one has been created.",
               "Warehouse Bulk set electric EPD to 0.237684638 W/ft^2.",
               "Warehouse Bulk had no ventilation specification, one has been created.",
               "Warehouse Bulk set ventilation per area to 0.06 cfm/ft^2.",
               "Warehouse Bulk set occupancy schedule to Warehouse BLDG_OCC_SCH.",
               "Warehouse Bulk set occupant activity schedule to Warehouse Office Activity Schedule.",
               "Warehouse Bulk set lighting schedule to Warehouse BLDG_LIGHT_STORAGE_SCH.",
               "Warehouse Bulk set electric equipment schedule to Warehouse Bldg Equip.",
               "Warehouse Bulk set infiltration schedule to Warehouse Bulk Infil Schedule.",
               "Warehouse Fine had no lights, one has been created.",
               "Warehouse Fine set LPD to 0.69 W/ft^2.",
               "Warehouse Fine had no ventilation specification, one has been created.",
               "Warehouse Fine set ventilation per area to 0.06 cfm/ft^2.",
               "Warehouse Fine set occupancy schedule to Warehouse BLDG_OCC_SCH.",
               "Warehouse Fine set occupant activity schedule to Warehouse Office Activity Schedule.",
               "Warehouse Fine set lighting schedule to Warehouse BLDG_LIGHT_STORAGE_SCH.",
               "Warehouse Fine set electric equipment schedule to Warehouse Bldg Equip.",
               "Warehouse Fine set infiltration schedule to Warehouse Fine Infil Schedule.",
               "Warehouse Office had no people, one has been created.",
               "Warehouse Office set occupancy to 1.96 people/1000 ft^2.",
               "Warehouse Office had no lights, one has been created.",
               "Warehouse Office set LPD to 0.79 W/ft^2.",
               "Warehouse Office had no electric equipment, one has been created.",
               "Warehouse Office set electric EPD to 0.75 W/ft^2.",
               "Warehouse Office had no ventilation specification, one has been created.",
               "Warehouse Office set ventilation per area to 0.06 cfm/ft^2.",
               "Warehouse Office set ventilation per person to 5.0 cfm/person.",
               "Warehouse Office set occupancy schedule to Warehouse BLDG_OCC_SCH.",
               "Warehouse Office set occupant activity schedule to Warehouse Office Activity Schedule.",
               "Warehouse Office set lighting schedule to Warehouse BLDG_LIGHT_OFFICE_SCH_2013.",
               "Warehouse Office set electric equipment schedule to Warehouse Office_Plug_SCH_2013.",
               "Warehouse Office set infiltration schedule to Warehouse Office Infil Schedule.",
               "Adding construction set: 90.1-2016-ASHRAE 169-2013-8A-Warehouse--is_residentialNo",
               "Adding construction Typical Insulated Exterior Mass Floor R-26.32 1.",
               "Adding construction Typical Insulated Metal Building Wall R-16.67.",
               "Adding construction Typical Insulated Metal Building Roof R-27.03.",
               "Adding construction Typical Insulated Carpeted 6in Slab Floor.",
               "Adding construction U 0.38 SHGC 0.45 Simple Glazing Window U-0.38 SHGC 0.45.",
               "Adding construction U 0.38 SHGC 0.45 Simple Glazing Window U-0.38 SHGC 0.45 1.",
               "Adding construction Typical Insulated Metal Door R-2.7.",
               "Adding construction U 0.38 SHGC 0.45 Simple Glazing Window U-0.38 SHGC 0.45 2.",
               "Adding construction Typical Overhead Door R-3.23.",
               "Adding construction U 0.85 SHGC 0.55 Simple Glazing Window U-0.85 SHGC 0.55.",
               "Adding construction Typical Insulated Exterior Mass Wall R-20.83.",
               "For Warehouse Bulk A  - Story Ground, set infiltration rate to 0.112 cfm/ft2 exterior wall area (aka 1.0 cfm/ft2 @75Pa).",
               "For Warehouse Bulk A end_a - Story Ground, set infiltration rate to 0.112 cfm/ft2 exterior wall area (aka 1.0 cfm/ft2 @75Pa).",
               "For Warehouse Bulk B  - Story Ground, no exterior wall area was found, no infiltration will be added.",
               "For Warehouse Bulk B end_a - Story Ground, set infiltration rate to 0.112 cfm/ft2 exterior wall area (aka 1.0 cfm/ft2 @75Pa).",
               "For Warehouse Bulk C  - Story Ground, set infiltration rate to 0.112 cfm/ft2 exterior wall area (aka 1.0 cfm/ft2 @75Pa).",
               "For Warehouse Bulk C end_a - Story Ground, set infiltration rate to 0.112 cfm/ft2 exterior wall area (aka 1.0 cfm/ft2 @75Pa).",
               "For Warehouse Fine A  - Story Ground, set infiltration rate to 0.112 cfm/ft2 exterior wall area (aka 1.0 cfm/ft2 @75Pa).",
               "For Warehouse Fine A end_b - Story Ground, set infiltration rate to 0.112 cfm/ft2 exterior wall area (aka 1.0 cfm/ft2 @75Pa).",
               "For Warehouse Fine B  - Story Ground, no exterior wall area was found, no infiltration will be added.",
               "For Warehouse Fine B end_b - Story Ground, set infiltration rate to 0.112 cfm/ft2 exterior wall area (aka 1.0 cfm/ft2 @75Pa).",
               "For Warehouse Fine C  - Story Ground, set infiltration rate to 0.112 cfm/ft2 exterior wall area (aka 1.0 cfm/ft2 @75Pa).",
               "For Warehouse Fine C end_b - Story Ground, set infiltration rate to 0.112 cfm/ft2 exterior wall area (aka 1.0 cfm/ft2 @75Pa).",
               "For Warehouse Office A  - Story Ground, set infiltration rate to 0.112 cfm/ft2 exterior wall area (aka 1.0 cfm/ft2 @75Pa).",
               "For Warehouse Office B  - Story Ground, no exterior wall area was found, no infiltration will be added.",
               "For Warehouse Office C  - Story Ground, set infiltration rate to 0.112 cfm/ft2 exterior wall area (aka 1.0 cfm/ft2 @75Pa).",
               "Extracting weather files from OpenStudio CLI to /private/var/folders/cj/vhw1_9g1151dh76sjlgdyq19k7f3h5/T/osmodel-1682358120-2/resources/run/001_create_typical_building_from_model 1/extracted_files/weather",
               "Cannot identify standards building type and space type for Office Attic - 90.1-2016, it won't be added to space_type_hash.",
               "Cannot identify standards building type and space type for Office WholeBuilding - Sm Office - 90.1-2016, it won't be added to space_type_hash.",
               "For Warehouse Bulk - 90.1-2016, floor area = 46396 ft^2.",
               "For Warehouse Bulk - 90.1-2016, number of spaces = 6.",
               "For Warehouse Fine - 90.1-2016, floor area = 20174 ft^2.",
               "For Warehouse Fine - 90.1-2016, number of spaces = 6.",
               "For Warehouse Office - 90.1-2016, floor area = 3430 ft^2.",
               "For Warehouse Office - 90.1-2016, number of spaces = 3.",
               "For Warehouse Office - 90.1-2016, number of people = 7.",
               "Started adding daylighting controls.",
               "For Warehouse Bulk A  - Story Ground: illuminance setpoint = 215.0 Lux",
               "For Warehouse Bulk A  - Story Ground: sensor 1 controls 77% of the zone lighting.",
               "For Warehouse Bulk A  - Story Ground: sensor 2 controls 23% of the zone lighting.",
               "For Warehouse Bulk A end_a - Story Ground, primary sidelighting control not required because less than 150W of lighting are present in the primary daylighted area per 9.4.1.1(e).",
               "For Warehouse Bulk A end_a - Story Ground, secondary sidelighting control not required because less than 300W of lighting are present in the combined primary and secondary daylighted areas per 9.4.1.1(e).",
               "For Warehouse Bulk B  - Story Ground, daylighting control not applicable because no exterior fenestration is present.",
               "For Warehouse Bulk B end_a - Story Ground: illuminance setpoint = 215.0 Lux",
               "For Warehouse Bulk B end_a - Story Ground: sensor 1 controls 77% of the zone lighting.",
               "For Warehouse Bulk B end_a - Story Ground: sensor 2 controls 23% of the zone lighting.",
               "For Warehouse Bulk C  - Story Ground: illuminance setpoint = 215.0 Lux",
               "For Warehouse Bulk C  - Story Ground: sensor 1 controls 77% of the zone lighting.",
               "For Warehouse Bulk C  - Story Ground: sensor 2 controls 23% of the zone lighting.",
               "For Warehouse Bulk C end_a - Story Ground, primary sidelighting control not required because less than 150W of lighting are present in the primary daylighted area per 9.4.1.1(e).",
               "For Warehouse Bulk C end_a - Story Ground, secondary sidelighting control not required because less than 300W of lighting are present in the combined primary and secondary daylighted areas per 9.4.1.1(e).",
               "For Warehouse Fine A  - Story Ground: illuminance setpoint = 323.0 Lux",
               "For Warehouse Fine A  - Story Ground: sensor 1 controls 77% of the zone lighting.",
               "For Warehouse Fine A  - Story Ground: sensor 2 controls 23% of the zone lighting.",
               "For Warehouse Fine A end_b - Story Ground, primary sidelighting control not required because less than 150W of lighting are present in the primary daylighted area per 9.4.1.1(e).",
               "For Warehouse Fine A end_b - Story Ground, secondary sidelighting control not required because less than 300W of lighting are present in the combined primary and secondary daylighted areas per 9.4.1.1(e).",
               "For Warehouse Fine B  - Story Ground, daylighting control not applicable because no exterior fenestration is present.",
               "For Warehouse Fine B end_b - Story Ground: illuminance setpoint = 323.0 Lux",
               "For Warehouse Fine B end_b - Story Ground: sensor 1 controls 77% of the zone lighting.",
               "For Warehouse Fine B end_b - Story Ground: sensor 2 controls 23% of the zone lighting.",
[...]
                  "name" : "fuel_oil_no_1_exterior_lighting_ip",
                  "units" : "kWh",
                  "value" : 0.0
               },
               {
                  "name" : "fuel_oil_no_1_interior_equipment_ip",
                  "units" : "kWh",
                  "value" : 0.0
               },
               {
                  "name" : "fuel_oil_no_1_exterior_equipment_ip",
                  "units" : "kWh",
                  "value" : 0.0
               },
               {
                  "name" : "fuel_oil_no_1_fans_ip",
                  "units" : "kWh",
                  "value" : 0.0
               },
               {
                  "name" : "fuel_oil_no_1_pumps_ip",
                  "units" : "kWh",
                  "value" : 0.0
               },
               {
                  "name" : "fuel_oil_no_1_heat_rejection_ip",
                  "units" : "kWh",
                  "value" : 0.0
               },
               {
                  "name" : "fuel_oil_no_1_humidification_ip",
                  "units" : "kWh",
                  "value" : 0.0
               },
               {
                  "name" : "fuel_oil_no_1_heat_recovery_ip",
                  "units" : "kWh",
                  "value" : 0.0
               },
               {
                  "name" : "fuel_oil_no_1_water_systems_ip",
                  "units" : "kWh",
                  "value" : 0.0
               },
               {
                  "name" : "fuel_oil_no_1_refrigeration_ip",
                  "units" : "kWh",
                  "value" : 0.0
               },
               {
                  "name" : "fuel_oil_no_1_generators_ip",
                  "units" : "kWh",
                  "value" : 0.0
               },
               {
                  "name" : "fuel_oil_no_1_ip",
                  "units" : "kWh",
                  "value" : 0.0
               },
               {
                  "name" : "fuel_oil_no_2_heating_ip",
                  "units" : "kWh",
                  "value" : 0.0
               },
               {
                  "name" : "fuel_oil_no_2_cooling_ip",
                  "units" : "kWh",
                  "value" : 0.0
               },
               {
                  "name" : "fuel_oil_no_2_interior_lighting_ip",
                  "units" : "kWh",
                  "value" : 0.0
               },
               {
                  "name" : "fuel_oil_no_2_exterior_lighting_ip",
                  "units" : "kWh",
                  "value" : 0.0
               },
               {
                  "name" : "fuel_oil_no_2_interior_equipment_ip",
                  "units" : "kWh",
                  "value" : 0.0
               },
               {
                  "name" : "fuel_oil_no_2_exterior_equipment_ip",
                  "units" : "kWh",
                  "value" : 0.0
               },
               {
                  "name" : "fuel_oil_no_2_fans_ip",
                  "units" : "kWh",
                  "value" : 0.0
               },
               {
                  "name" : "fuel_oil_no_2_pumps_ip",
                  "units" : "kWh",
                  "value" : 0.0
               },
               {
                  "name" : "fuel_oil_no_2_heat_rejection_ip",
                  "units" : "kWh",
                  "value" : 0.0
               },
               {
                  "name" : "fuel_oil_no_2_humidification_ip",
                  "units" : "kWh",
                  "value" : 0.0
               },
               {
                  "name" : "fuel_oil_no_2_heat_recovery_ip",
                  "units" : "kWh",
                  "value" : 0.0
               },
               {
                  "name" : "fuel_oil_no_2_water_systems_ip",
                  "units" : "kWh",
                  "value" : 0.0
               },
               {
                  "name" : "fuel_oil_no_2_refrigeration_ip",
                  "units" : "kWh",
                  "value" : 0.0
               },
               {
                  "name" : "fuel_oil_no_2_generators_ip",
                  "units" : "kWh",
                  "value" : 0.0
               },
               {
                  "name" : "fuel_oil_no_2_ip",
                  "units" : "kWh",
                  "value" : 0.0
               },
               {
                  "name" : "propane_heating_ip",
                  "units" : "kWh",
                  "value" : 0.0
               },
               {
                  "name" : "propane_cooling_ip",
                  "units" : "kWh",
                  "value" : 0.0
               },
               {
                  "name" : "propane_interior_lighting_ip",
                  "units" : "kWh",
                  "value" : 0.0
               },
               {
                  "name" : "propane_exterior_lighting_ip",
                  "units" : "kWh",
                  "value" : 0.0
               },
               {
                  "name" : "propane_interior_equipment_ip",
                  "units" : "kWh",
                  "value" : 0.0
               },
               {
                  "name" : "propane_exterior_equipment_ip",
                  "units" : "kWh",
                  "value" : 0.0
               },
               {
                  "name" : "propane_fans_ip",
                  "units" : "kWh",
                  "value" : 0.0
               },
               {
                  "name" : "propane_pumps_ip",
                  "units" : "kWh",
                  "value" : 0.0
               },
               {
                  "name" : "propane_heat_rejection_ip",
                  "units" : "kWh",
                  "value" : 0.0
               },
               {
                  "name" : "propane_humidification_ip",
                  "units" : "kWh",
                  "value" : 0.0
               },
               {
                  "name" : "propane_heat_recovery_ip",
                  "units" : "kWh",
                  "value" : 0.0
               },
               {
                  "name" : "propane_water_systems_ip",
                  "units" : "kWh",
                  "value" : 0.0
               },
               {
                  "name" : "propane_refrigeration_ip",
                  "units" : "kWh",
                  "value" : 0.0
               },
               {
                  "name" : "propane_generators_ip",
                  "units" : "kWh",
                  "value" : 0.0
               },
               {
                  "name" : "propane_ip",
                  "units" : "kWh",
                  "value" : 0.0
               },
               {
                  "name" : "other_fuel_1_heating_ip",
                  "units" : "kWh",
                  "value" : 0.0
               },
               {
                  "name" : "other_fuel_1_cooling_ip",
                  "units" : "kWh",
                  "value" : 0.0
               },
               {
                  "name" : "other_fuel_1_interior_lighting_ip",
                  "units" : "kWh",
                  "value" : 0.0
               },
               {
                  "name" : "other_fuel_1_exterior_lighting_ip",
                  "units" : "kWh",
                  "value" : 0.0
               },
               {
                  "name" : "other_fuel_1_interior_equipment_ip",
                  "units" : "kWh",
                  "value" : 0.0
               },
               {
                  "name" : "other_fuel_1_exterior_equipment_ip",
                  "units" : "kWh",
                  "value" : 0.0
               },
               {
                  "name" : "other_fuel_1_fans_ip",
                  "units" : "kWh",
                  "value" : 0.0
               },
               {
                  "name" : "other_fuel_1_pumps_ip",
                  "units" : "kWh",
                  "value" : 0.0
               },
               {
                  "name" : "other_fuel_1_heat_rejection_ip",
                  "units" : "kWh",
                  "value" : 0.0
               },
               {
                  "name" : "other_fuel_1_humidification_ip",
                  "units" : "kWh",
                  "value" : 0.0
               },
               {
                  "name" : "other_fuel_1_heat_recovery_ip",
                  "units" : "kWh",
                  "value" : 0.0
               },
               {
                  "name" : "other_fuel_1_water_systems_ip",
                  "units" : "kWh",
                  "value" : 0.0
               },
               {
                  "name" : "other_fuel_1_refrigeration_ip",
                  "units" : "kWh",
                  "value" : 0.0
               },
               {
                  "name" : "other_fuel_1_generators_ip",
                  "units" : "kWh",
                  "value" : 0.0
               },
               {
                  "name" : "other_fuel_1_ip",
                  "units" : "kWh",
                  "value" : 0.0
               },
               {
                  "name" : "other_fuel_2_heating_ip",
                  "units" : "kWh",
                  "value" : 0.0
               },
               {
                  "name" : "other_fuel_2_cooling_ip",
                  "units" : "kWh",
                  "value" : 0.0
               },
               {
                  "name" : "other_fuel_2_interior_lighting_ip",
                  "units" : "kWh",
                  "value" : 0.0
               },
               {
                  "name" : "other_fuel_2_exterior_lighting_ip",
                  "units" : "kWh",
                  "value" : 0.0
               },
               {
                  "name" : "other_fuel_2_interior_equipment_ip",
                  "units" : "kWh",
                  "value" : 0.0
               },
               {
                  "name" : "other_fuel_2_exterior_equipment_ip",
                  "units" : "kWh",
                  "value" : 0.0
               },
               {
                  "name" : "other_fuel_2_fans_ip",
                  "units" : "kWh",
                  "value" : 0.0
               },
               {
                  "name" : "other_fuel_2_pumps_ip",
                  "units" : "kWh",
                  "value" : 0.0
               },
               {
                  "name" : "other_fuel_2_heat_rejection_ip",
                  "units" : "kWh",
                  "value" : 0.0
               },
               {
                  "name" : "other_fuel_2_humidification_ip",
                  "units" : "kWh",
                  "value" : 0.0
               },
               {
                  "name" : "other_fuel_2_heat_recovery_ip",
                  "units" : "kWh",
                  "value" : 0.0
               },
               {
                  "name" : "other_fuel_2_water_systems_ip",
                  "units" : "kWh",
                  "value" : 0.0
               },
               {
                  "name" : "other_fuel_2_refrigeration_ip",
                  "units" : "kWh",
                  "value" : 0.0
               },
               {
                  "name" : "other_fuel_2_generators_ip",
                  "units" : "kWh",
                  "value" : 0.0
               },
               {
                  "name" : "other_fuel_2_ip",
                  "units" : "kWh",
                  "value" : 0.0
               },
               {
                  "name" : "district_cooling_heating_ip",
                  "units" : "kWh",
                  "value" : 0.0
               },
               {
                  "name" : "district_cooling_cooling_ip",
                  "units" : "kWh",
                  "value" : 0.0
               },
               {
                  "name" : "district_cooling_interior_lighting_ip",
                  "units" : "kWh",
                  "value" : 0.0
               },
               {
                  "name" : "district_cooling_exterior_lighting_ip",
                  "units" : "kWh",
                  "value" : 0.0
               },
               {
                  "name" : "district_cooling_interior_equipment_ip",
                  "units" : "kWh",
                  "value" : 0.0
               },
               {
                  "name" : "district_cooling_exterior_equipment_ip",
                  "units" : "kWh",
                  "value" : 0.0
               },
               {
                  "name" : "district_cooling_fans_ip",
                  "units" : "kWh",
                  "value" : 0.0
               },
               {
                  "name" : "district_cooling_pumps_ip",
                  "units" : "kWh",
                  "value" : 0.0
               },
               {
                  "name" : "district_cooling_heat_rejection_ip",
                  "units" : "kWh",
                  "value" : 0.0
               },
               {
                  "name" : "district_cooling_humidification_ip",
                  "units" : "kWh",
                  "value" : 0.0
               },
               {
                  "name" : "district_cooling_heat_recovery_ip",
                  "units" : "kWh",
                  "value" : 0.0
               },
               {
                  "name" : "district_cooling_water_systems_ip",
                  "units" : "kWh",
                  "value" : 0.0
               },
               {
                  "name" : "district_cooling_refrigeration_ip",
                  "units" : "kWh",
                  "value" : 0.0
               },
               {
                  "name" : "district_cooling_generators_ip",
                  "units" : "kWh",
                  "value" : 0.0
               },
               {
                  "name" : "district_cooling_ip",
                  "units" : "kWh",
                  "value" : 0.0
               },
               {
                  "name" : "district_heating_heating_ip",
                  "units" : "kWh",
                  "value" : 301495.71163170278
               },
               {
                  "name" : "district_heating_cooling_ip",
                  "units" : "kWh",
                  "value" : 0.0
               },
               {
                  "name" : "district_heating_interior_lighting_ip",
                  "units" : "kWh",
                  "value" : 0.0
               },
               {
                  "name" : "district_heating_exterior_lighting_ip",
                  "units" : "kWh",
                  "value" : 0.0
               },
               {
                  "name" : "district_heating_interior_equipment_ip",
                  "units" : "kWh",
                  "value" : 0.0
               },
               {
                  "name" : "district_heating_exterior_equipment_ip",
                  "units" : "kWh",
                  "value" : 0.0
               },
               {
                  "name" : "district_heating_fans_ip",
                  "units" : "kWh",
                  "value" : 0.0
               },
               {
                  "name" : "district_heating_pumps_ip",
                  "units" : "kWh",
                  "value" : 0.0
               },
               {
                  "name" : "district_heating_heat_rejection_ip",
                  "units" : "kWh",
                  "value" : 0.0
               },
               {
                  "name" : "district_heating_humidification_ip",
                  "units" : "kWh",
                  "value" : 0.0
               },
               {
                  "name" : "district_heating_heat_recovery_ip",
                  "units" : "kWh",
                  "value" : 0.0
               },
               {
                  "name" : "district_heating_water_systems_ip",
                  "units" : "kWh",
                  "value" : 0.0
               },
               {
                  "name" : "district_heating_refrigeration_ip",
                  "units" : "kWh",
                  "value" : 0.0
               },
               {
                  "name" : "district_heating_generators_ip",
                  "units" : "kWh",
                  "value" : 0.0
               },
               {
                  "name" : "district_heating_ip",
                  "units" : "kWh",
                  "value" : 301495.71163170278
               },
               {
                  "name" : "typical_insulated_exterior_mass_wall_r_20_83",
                  "units" : "m^2",
                  "value" : 5117.6843548374109
               },
               {
                  "name" : "typical_insulated_metal_building_roof_r_27_03",
                  "units" : "m^2",
                  "value" : 6503.2127999999921
               },
               {
                  "name" : "u_0_38_shgc_0_45_simple_glazing_window_u_0_38_shgc_0_45",
                  "units" : "m^2",
                  "value" : 903.12076850071992
               },
               {
                  "name" : "gross_window_wall_ratio",
                  "units" : "%",
                  "value" : 15.0
               },
               {
                  "name" : "gross_window_wall_ratio_conditioned",
                  "units" : "%",
                  "value" : 15.0
               },
               {
                  "name" : "skylight_roof_ratio",
                  "units" : "%",
                  "value" : 0.0
               },
               {
                  "name" : "space_type_warehouse_bulk_90_1_2016",
                  "units" : "m^2",
                  "value" : 4310.3294438399944
               },
               {
                  "name" : "space_type_warehouse_fine_90_1_2016",
                  "units" : "m^2",
                  "value" : 1874.2259289600022
               },
               {
                  "name" : "space_type_warehouse_office_90_1_2016",
                  "units" : "m^2",
                  "value" : 318.65742719999594
               },
               {
                  "name" : "zone_max_hours_over_70_rh",
                  "units" : "hr",
                  "value" : 1151.0
               },
               {
                  "name" : "zone_max_hours_over_55_rh",
                  "units" : "hr",
                  "value" : 2544.0
               },
               {
                  "name" : "num_zones_x_hours_over_70",
                  "units" : "zones",
                  "value" : 9
               },
               {
                  "name" : "num_zones_x_hours_over_55",
                  "units" : "zones",
                  "value" : 14
               },
               {
                  "name" : "inflation_approach",
                  "value" : "Constant Dollar"
               },
               {
                  "name" : "analysis_length",
                  "units" : "yrs",
                  "value" : 25
               },
               {
                  "name" : "number_of_measures_with_warnings",
                  "value" : 1
               },
               {
                  "name" : "number_warnings",
                  "value" : 43
               },
               {
                  "name" : "annual_peak_electric_demand",
                  "units" : "kW",
                  "value" : 55.031880000000001
               },
               {
                  "name" : "first_year_capital_cost",
                  "units" : "$",
                  "value" : 0.0
               },
               {
                  "name" : "annual_utility_cost",
                  "units" : "$",
                  "value" : 0.0
               },
               {
                  "name" : "total_lifecycle_cost",
                  "units" : "$",
                  "value" : 0.0
               }
            ],
            "step_warnings" : []
         }
      }
   ],
   "updated_at" : "20230424T174827Z",
   "weather_file" : "USA_AK_Kodiak.703500_2020.epw"
}