Program Version,EnergyPlus, Version 22.2.0-aa78da9668, YMD=2023.06.21 17:51
! <Version>, Version ID
 Version, 22.2
! <Timesteps per Hour>, #TimeSteps, Minutes per TimeStep {minutes}
 Timesteps per Hour,  1, 60
! <System Convergence Limits>, Minimum System TimeStep {minutes}, Max HVAC Iterations, Minimum Plant Iterations, Maximum Plant Iterations
 System Convergence Limits, 1, 20, 2, 8
! <Simulation Control>, Do Zone Sizing, Do System Sizing, Do Plant Sizing, Do Design Days, Do Weather Simulation, Do HVAC Sizing Simulation
 Simulation Control, Yes, Yes, Yes, No, Yes, No
! <Performance Precision Tradeoffs>, Use Coil Direct Simulation, Zone Radiant Exchange Algorithm, Override Mode, Number of Timestep In Hour, Force Euler Method, Minimum Number of Warmup Days, Force Suppress All Begin Environment Resets, Minimum System Timestep, MaxZoneTempDiff, MaxAllowedDelTemp
 Performance Precision Tradeoffs, No, ScriptF, Normal, 1, No, 1, No, 1.0, 0.300, 2.0000E-003
! <Output Reporting Tolerances>, Tolerance for Time Heating Setpoint Not Met, Tolerance for Zone Cooling Setpoint Not Met Time
 Output Reporting Tolerances, 0.556, 0.556, 
! <Site:GroundTemperature:BuildingSurface>,Jan{C},Feb{C},Mar{C},Apr{C},May{C},Jun{C},Jul{C},Aug{C},Sep{C},Oct{C},Nov{C},Dec{C}
 Site:GroundTemperature:BuildingSurface,  18.00,  18.00,  18.00,  18.00,  18.00,  18.00,  18.00,  18.00,  18.00,  18.00,  18.00,  18.00
! <Site:GroundTemperature:FCfactorMethod>,Jan{C},Feb{C},Mar{C},Apr{C},May{C},Jun{C},Jul{C},Aug{C},Sep{C},Oct{C},Nov{C},Dec{C}
 Site:GroundTemperature:FCfactorMethod,  -3.10, -17.70, -19.30, -17.60, -15.40, -10.30,   0.70,  10.60,  16.00,  16.90,  14.20,   6.70
! <Site:GroundTemperature:Shallow>,Jan{C},Feb{C},Mar{C},Apr{C},May{C},Jun{C},Jul{C},Aug{C},Sep{C},Oct{C},Nov{C},Dec{C}
 Site:GroundTemperature:Shallow,  13.00,  13.00,  13.00,  13.00,  13.00,  13.00,  13.00,  13.00,  13.00,  13.00,  13.00,  13.00
! <Site:GroundTemperature:Deep>,Jan{C},Feb{C},Mar{C},Apr{C},May{C},Jun{C},Jul{C},Aug{C},Sep{C},Oct{C},Nov{C},Dec{C}
 Site:GroundTemperature:Deep,  16.00,  16.00,  16.00,  16.00,  16.00,  16.00,  16.00,  16.00,  16.00,  16.00,  16.00,  16.00
! <Site:GroundReflectance>,Jan{dimensionless},Feb{dimensionless},Mar{dimensionless},Apr{dimensionless},May{dimensionless},Jun{dimensionless},Jul{dimensionless},Aug{dimensionless},Sep{dimensionless},Oct{dimensionless},Nov{dimensionless},Dec{dimensionless}
 Site:GroundReflectance,  0.20,  0.20,  0.20,  0.20,  0.20,  0.20,  0.20,  0.20,  0.20,  0.20,  0.20,  0.20
! <Site:GroundReflectance:SnowModifier>, Normal, Daylighting {dimensionless}
 Site:GroundReflectance:SnowModifier,   1.000,   1.000
! <Site:GroundReflectance:Snow>,Jan{dimensionless},Feb{dimensionless},Mar{dimensionless},Apr{dimensionless},May{dimensionless},Jun{dimensionless},Jul{dimensionless},Aug{dimensionless},Sep{dimensionless},Oct{dimensionless},Nov{dimensionless},Dec{dimensionless}
 Site:GroundReflectance:Snow,  0.20,  0.20,  0.20,  0.20,  0.20,  0.20,  0.20,  0.20,  0.20,  0.20,  0.20,  0.20
! <Site:GroundReflectance:Snow:Daylighting>,Jan{dimensionless},Feb{dimensionless},Mar{dimensionless},Apr{dimensionless},May{dimensionless},Jun{dimensionless},Jul{dimensionless},Aug{dimensionless},Sep{dimensionless},Oct{dimensionless},Nov{dimensionless},Dec{dimensionless}
 Site:GroundReflectance:Snow:Daylighting,  0.20,  0.20,  0.20,  0.20,  0.20,  0.20,  0.20,  0.20,  0.20,  0.20,  0.20,  0.20
! <Environment:Weather Station>,Wind Sensor Height Above Ground {m},Wind Speed Profile Exponent {},Wind Speed Profile Boundary Layer Thickness {m},Air Temperature Sensor Height Above Ground {m},Wind Speed Modifier Coefficient-Internal,Temperature Modifier Coefficient-Internal
Environment:Weather Station,10.000,0.140,270.000,1.500,1.586,9.750E-003
! <Site:Location>, Location Name, Latitude {N+/S- Deg}, Longitude {E+/W- Deg},  Time Zone Number {GMT+/-}, Elevation {m},  Standard Pressure at Elevation {Pa}, Standard RhoAir at Elevation
Site:Location,Kodiak Airport AK USA TMY3 WMO#=703500,57.75,-152.50,-9.00,5.00,101265,1.2036
! <Site Water Mains Temperature Information>,Calculation Method{},Water Mains Temperature Schedule Name{},Annual Average Outdoor Air Temperature{C},Maximum Difference In Monthly Average Outdoor Air Temperatures{deltaC},Fixed Default Water Mains Temperature{C}
Site Water Mains Temperature Information,Correlation,NA,-1.53,36.20,NA
! <Building Information>, Building Name,North Axis {deg},Terrain,  Loads Convergence Tolerance Value,Temperature Convergence Tolerance Value,  Solar Distribution,Maximum Number of Warmup Days,Minimum Number of Warmup Days
 Building Information,90.1-2016|Warehouse,0.000,Urban,4.00000E-002,0.20000,FullInteriorAndExterior,25,6
! <Inside Convection Algorithm>, Algorithm {Simple | TARP | CeilingDiffuser | AdaptiveConvectionAlgorithm}
Inside Convection Algorithm,TARP
! <Outside Convection Algorithm>, Algorithm {SimpleCombined | TARP | MoWitt | DOE-2 | AdaptiveConvectionAlgorithm}
Outside Convection Algorithm,TARP
! <Sky Radiance Distribution>, Value {Anisotropic}
Sky Radiance Distribution,Anisotropic
! <Zone Air Solution Algorithm>, Value {ThirdOrderBackwardDifference | AnalyticalSolution | EulerMethod}
 Zone Air Solution Algorithm, ThirdOrderBackwardDifference
! <Zone Air Carbon Dioxide Balance Simulation>, Simulation {Yes/No}, Carbon Dioxide Concentration
 Zone Air Carbon Dioxide Balance Simulation, No,N/A
! <Zone Air Generic Contaminant Balance Simulation>, Simulation {Yes/No}, Generic Contaminant Concentration
 Zone Air Generic Contaminant Balance Simulation, No,N/A
! <Zone Air Mass Flow Balance Simulation>, Enforce Mass Balance, Adjust Zone Mixing and Return {AdjustMixingOnly | AdjustReturnOnly | AdjustMixingThenReturn | AdjustReturnThenMixing | None}, Adjust Zone Infiltration {AddInfiltration | AdjustInfiltration | None}, Infiltration Zones {MixingSourceZonesOnly | AllZones}
 Zone Air Mass Flow Balance Simulation, No,N/A,N/A,N/A
! <HVACSystemRootFindingAlgorithm>, Value {RegulaFalsi | Bisection | BisectionThenRegulaFalsi | RegulaFalsiThenBisection}
 HVACSystemRootFindingAlgorithm, RegulaFalsi
! <Environment:Site Atmospheric Variation>,Wind Speed Profile Exponent {},Wind Speed Profile Boundary Layer Thickness {m},Air Temperature Gradient Coefficient {K/m}
Environment:Site Atmospheric Variation,0.220,370.000,6.500000E-003
! <Surface Geometry>,Starting Corner,Vertex Input Direction,Coordinate System,Daylight Reference Point Coordinate System,Rectangular (Simple) Surface Coordinate System
 Surface Geometry,UpperLeftCorner,Counterclockwise,RelativeCoordinateSystem,RelativeCoordinateSystem,RelativeToZoneOrigin
! <Surface Heat Transfer Algorithm>, Value {CTF - ConductionTransferFunction | EMPD - MoisturePenetrationDepthConductionTransferFunction | CondFD - ConductionFiniteDifference | HAMT - CombinedHeatAndMoistureFiniteElement} - Description,Inside Surface Max Temperature Limit{C}, Surface Convection Coefficient Lower Limit {W/m2-K}, Surface Convection Coefficient Upper Limit {W/m2-K}
Surface Heat Transfer Algorithm, CTF - ConductionTransferFunction,200,0.10,1000.0
! <Shading Summary>, Number of Fixed Detached Shades, Number of Building Detached Shades, Number of Attached Shades
 Shading Summary,0,0,0
! <Zone Summary>, Number of Zones, Number of Zone Surfaces, Number of SubSurfaces
 Zone Summary,15,115,16
! <Zone Information>,Zone Name,North Axis {deg},Origin X-Coordinate {m},Origin Y-Coordinate {m},Origin Z-Coordinate {m},Centroid X-Coordinate {m},Centroid Y-Coordinate {m},Centroid Z-Coordinate {m},Type,Zone Multiplier,Zone List Multiplier,Minimum X {m},Maximum X {m},Minimum Y {m},Maximum Y {m},Minimum Z {m},Maximum Z {m},Ceiling Height {m},Volume {m3},Zone Inside Convection Algorithm {Simple-Detailed-CeilingDiffuser-TrombeWall},Zone Outside Convection Algorithm {Simple-Detailed-Tarp-MoWitt-DOE-2-BLAST}, Floor Area {m2},Exterior Gross Wall Area {m2},Exterior Net Wall Area {m2},Exterior Window Area {m2}, Number of Surfaces, Number of SubSurfaces, Number of Shading SubSurfaces,  Part of Total Building Area
 Zone Information, ZONE WAREHOUSE BULK A  - STORY GROUND,0.0,-44.81,-32.92,0.00,-14.37,-30.64,9.14,1,1,1,-44.81,16.08,-32.92,-28.35,0.00,18.29,18.29,5091.22,TARP,TARP,278.39,1113.56,946.53,167.03,6,1,0,Yes
 Zone Information, ZONE WAREHOUSE BULK A END_A - STORY GROUND,0.0,-49.38,-32.92,0.00,-47.10,-30.64,9.14,1,1,1,-49.38,-44.81,-32.92,-28.35,0.00,18.29,18.29,382.28,TARP,TARP,20.90,167.23,142.14,25.08,6,2,0,Yes
 Zone Information, ZONE WAREHOUSE BULK B  - STORY GROUND,0.0,-44.81,-28.35,0.00,-14.37,1.40E-014,9.14,1,1,1,-44.81,16.08,-28.35,28.35,0.00,18.29,18.29,63139.45,TARP,TARP,3452.51,0.00,0.00,0.00,6,0,0,Yes
 Zone Information, ZONE WAREHOUSE BULK B END_A - STORY GROUND,0.0,-49.38,-28.35,0.00,-47.10,1.35E-014,9.14,1,1,1,-49.38,-44.81,-28.35,28.35,0.00,18.29,18.29,4740.87,TARP,TARP,259.23,1036.94,881.40,155.54,6,1,0,Yes
 Zone Information, ZONE WAREHOUSE BULK C  - STORY GROUND,0.0,-44.81,28.35,0.00,-14.37,30.64,9.14,1,1,1,-44.81,16.08,28.35,32.92,0.00,18.29,18.29,5091.22,TARP,TARP,278.39,1113.56,946.53,167.03,6,1,0,Yes
 Zone Information, ZONE WAREHOUSE BULK C END_A - STORY GROUND,0.0,-49.38,28.35,0.00,-47.10,30.64,9.14,1,1,1,-49.38,-44.81,28.35,32.92,0.00,18.29,18.29,382.28,TARP,TARP,20.90,167.23,142.14,25.08,6,2,0,Yes
 Zone Information, ZONE WAREHOUSE FINE A  - STORY GROUND,0.0,20.92,-32.92,0.00,32.86,-30.64,9.14,1,1,1,20.92,44.81,-32.92,-28.35,0.00,18.29,18.29,1997.72,TARP,TARP,109.24,436.95,371.40,65.54,6,1,0,Yes
 Zone Information, ZONE WAREHOUSE FINE A END_B - STORY GROUND,0.0,44.81,-32.92,0.00,47.10,-30.64,9.14,1,1,1,44.81,49.38,-32.92,-28.35,0.00,18.29,18.29,382.28,TARP,TARP,20.90,167.23,142.14,25.08,6,2,0,Yes
 Zone Information, ZONE WAREHOUSE FINE B  - STORY GROUND,0.0,20.92,-28.35,0.00,32.86,1.44E-014,9.14,1,1,1,20.92,44.81,-28.35,28.35,0.00,18.29,18.29,24774.98,TARP,TARP,1354.71,0.00,0.00,0.00,6,0,0,Yes
 Zone Information, ZONE WAREHOUSE FINE B END_B - STORY GROUND,0.0,44.81,-28.35,0.00,47.10,1.33E-014,9.14,1,1,1,44.81,49.38,-28.35,28.35,0.00,18.29,18.29,4740.87,TARP,TARP,259.23,1036.94,881.40,155.54,6,1,0,Yes
 Zone Information, ZONE WAREHOUSE FINE C  - STORY GROUND,0.0,20.92,28.35,0.00,32.86,30.64,9.14,1,1,1,20.92,44.81,28.35,32.92,0.00,18.29,18.29,1997.72,TARP,TARP,109.24,436.95,371.40,65.54,6,1,0,Yes
 Zone Information, ZONE WAREHOUSE FINE C END_B - STORY GROUND,0.0,44.81,28.35,0.00,47.10,30.64,9.14,1,1,1,44.81,49.38,28.35,32.92,0.00,18.29,18.29,382.28,TARP,TARP,20.90,167.23,142.14,25.08,6,2,0,Yes
 Zone Information, ZONE WAREHOUSE OFFICE A  - STORY GROUND,0.0,16.08,-32.92,0.00,18.50,-30.64,9.14,1,1,1,16.08,20.92,-32.92,-28.35,0.00,18.29,18.29,404.65,TARP,TARP,22.13,88.51,75.23,13.28,6,1,0,Yes
 Zone Information, ZONE WAREHOUSE OFFICE B  - STORY GROUND,0.0,16.08,-28.35,0.00,18.50,1.43E-014,9.14,1,1,1,16.08,20.92,-28.35,28.35,0.00,18.29,18.29,5018.31,TARP,TARP,274.40,0.00,0.00,0.00,6,0,0,Yes
 Zone Information, ZONE WAREHOUSE OFFICE C  - STORY GROUND,0.0,16.08,28.35,0.00,18.50,30.64,9.14,1,1,1,16.08,20.92,28.35,32.92,0.00,18.29,18.29,404.65,TARP,TARP,22.13,88.51,75.23,13.28,6,1,0,Yes
! <Zone Internal Gains Nominal>,Zone Name, Floor Area {m2},# Occupants,Area per Occupant {m2/person},Occupant per Area {person/m2},Interior Lighting {W/m2},Electric Load {W/m2},Gas Load {W/m2},Other Load {W/m2},Hot Water Eq {W/m2},Steam Equipment {W/m2},Sum Loads per Area {W/m2},Outdoor Controlled Baseboard Heat
 Zone Internal Gains Nominal, ZONE WAREHOUSE BULK A  - STORY GROUND,278.39,0.0,N/A,0.000,3.767,20.558,0.000,0.000,0.000,0.000,24.326,No
 Zone Internal Gains Nominal, ZONE WAREHOUSE BULK A END_A - STORY GROUND,20.90,0.0,N/A,0.000,3.767,20.558,0.000,0.000,0.000,0.000,24.326,No
 Zone Internal Gains Nominal, ZONE WAREHOUSE BULK B  - STORY GROUND,3452.51,0.0,N/A,0.000,3.767,20.558,0.000,0.000,0.000,0.000,24.326,No
 Zone Internal Gains Nominal, ZONE WAREHOUSE BULK B END_A - STORY GROUND,259.23,0.0,N/A,0.000,3.767,20.558,0.000,0.000,0.000,0.000,24.326,No
 Zone Internal Gains Nominal, ZONE WAREHOUSE BULK C  - STORY GROUND,278.39,0.0,N/A,0.000,3.767,20.558,0.000,0.000,0.000,0.000,24.326,No
 Zone Internal Gains Nominal, ZONE WAREHOUSE BULK C END_A - STORY GROUND,20.90,0.0,N/A,0.000,3.767,20.558,0.000,0.000,0.000,0.000,24.326,No
 Zone Internal Gains Nominal, ZONE WAREHOUSE FINE A  - STORY GROUND,109.24,0.0,N/A,0.000,7.427,0.000,0.000,0.000,0.000,0.000,7.427,No
 Zone Internal Gains Nominal, ZONE WAREHOUSE FINE A END_B - STORY GROUND,20.90,0.0,N/A,0.000,7.427,0.000,0.000,0.000,0.000,0.000,7.427,No
 Zone Internal Gains Nominal, ZONE WAREHOUSE FINE B  - STORY GROUND,1354.71,0.0,N/A,0.000,7.427,0.000,0.000,0.000,0.000,0.000,7.427,No
 Zone Internal Gains Nominal, ZONE WAREHOUSE FINE B END_B - STORY GROUND,259.23,0.0,N/A,0.000,7.427,0.000,0.000,0.000,0.000,0.000,7.427,No
 Zone Internal Gains Nominal, ZONE WAREHOUSE FINE C  - STORY GROUND,109.24,0.0,N/A,0.000,7.427,0.000,0.000,0.000,0.000,0.000,7.427,No
 Zone Internal Gains Nominal, ZONE WAREHOUSE FINE C END_B - STORY GROUND,20.90,0.0,N/A,0.000,7.427,0.000,0.000,0.000,0.000,0.000,7.427,No
 Zone Internal Gains Nominal, ZONE WAREHOUSE OFFICE A  - STORY GROUND,22.13,0.5,47.400,2.110E-002,8.503,23.073,0.000,0.000,0.000,0.000,31.576,No
 Zone Internal Gains Nominal, ZONE WAREHOUSE OFFICE B  - STORY GROUND,274.40,5.8,47.400,2.110E-002,8.503,23.073,0.000,0.000,0.000,0.000,31.576,No
 Zone Internal Gains Nominal, ZONE WAREHOUSE OFFICE C  - STORY GROUND,22.13,0.5,47.400,2.110E-002,8.503,23.073,0.000,0.000,0.000,0.000,31.576,No
! <People Internal Gains Nominal>,Name,Schedule Name,Zone Name,Zone Floor Area {m2},# Zone Occupants,Number of People {},People/Floor Area {person/m2},Floor Area per person {m2/person},Fraction Radiant,Fraction Convected,Sensible Fraction Calculation,Activity level,ASHRAE 55 Warnings,Carbon Dioxide Generation Rate,Nominal Minimum Number of People,Nominal Maximum Number of People,MRT Calculation Type,Work Efficiency, Clothing Insulation Calculation Method,Clothing Insulation Calculation Method Schedule,Clothing,Air Velocity,Fanger Calculation,Pierce Calculation,KSU Calculation,Cooling Effect Calculation,Ankle Draft Calculation
 People Internal Gains Nominal, WAREHOUSE OFFICE C  - STORY GROUND WAREHOUSE OFFICE PEOPLE,WAREHOUSE BLDG_OCC_SCH,ZONE WAREHOUSE OFFICE C  - STORY GROUND,22.13,0.5,0.5,2.110E-002,47.400,0.300,0.700,AutoCalculate,WAREHOUSE OFFICE ACTIVITY SCHEDULE,Yes,3.8200E-008,0,0,Zone Averaged,WORK EFFICIENCY SCHEDULE,Clothing Insulation Schedule,N/A,CLOTHING SCHEDULE,AIR VELOCITY SCHEDULE,Yes,No,No,No,No
 People Internal Gains Nominal, WAREHOUSE OFFICE A  - STORY GROUND WAREHOUSE OFFICE PEOPLE,WAREHOUSE BLDG_OCC_SCH,ZONE WAREHOUSE OFFICE A  - STORY GROUND,22.13,0.5,0.5,2.110E-002,47.400,0.300,0.700,AutoCalculate,WAREHOUSE OFFICE ACTIVITY SCHEDULE,Yes,3.8200E-008,0,0,Zone Averaged,WORK EFFICIENCY SCHEDULE,Clothing Insulation Schedule,N/A,CLOTHING SCHEDULE,AIR VELOCITY SCHEDULE,Yes,No,No,No,No
 People Internal Gains Nominal, WAREHOUSE OFFICE B  - STORY GROUND WAREHOUSE OFFICE PEOPLE,WAREHOUSE BLDG_OCC_SCH,ZONE WAREHOUSE OFFICE B  - STORY GROUND,274.40,5.8,5.8,2.110E-002,47.400,0.300,0.700,AutoCalculate,WAREHOUSE OFFICE ACTIVITY SCHEDULE,Yes,3.8200E-008,0,6,Zone Averaged,WORK EFFICIENCY SCHEDULE,Clothing Insulation Schedule,N/A,CLOTHING SCHEDULE,AIR VELOCITY SCHEDULE,Yes,No,No,No,No
! <Lights Internal Gains Nominal>,Name,Schedule Name,Zone Name,Zone Floor Area {m2},# Zone Occupants,Lighting Level {W},Lights/Floor Area {W/m2},Lights per person {W/person},Fraction Return Air,Fraction Radiant,Fraction Short Wave,Fraction Convected,Fraction Replaceable,End-Use Category,Nominal Minimum Lighting Level {W},Nominal Maximum Lighting Level {W}
 Lights Internal Gains Nominal, WAREHOUSE BULK A END_A - STORY GROUND WAREHOUSE BULK LIGHTS,WAREHOUSE BLDG_LIGHT_STORAGE_SCH,ZONE WAREHOUSE BULK A END_A - STORY GROUND,20.90,0.0,78.750,3.767,N/A,0.000,0.420,0.180,0.400,1.000,General,0.000,78.750
 Lights Internal Gains Nominal, WAREHOUSE BULK B END_A - STORY GROUND WAREHOUSE BULK LIGHTS,WAREHOUSE BLDG_LIGHT_STORAGE_SCH,ZONE WAREHOUSE BULK B END_A - STORY GROUND,259.23,0.0,976.630,3.767,N/A,0.000,0.420,0.180,0.400,1.000,General,0.000,976.630
 Lights Internal Gains Nominal, WAREHOUSE BULK C END_A - STORY GROUND WAREHOUSE BULK LIGHTS,WAREHOUSE BLDG_LIGHT_STORAGE_SCH,ZONE WAREHOUSE BULK C END_A - STORY GROUND,20.90,0.0,78.750,3.767,N/A,0.000,0.420,0.180,0.400,1.000,General,0.000,78.750
 Lights Internal Gains Nominal, WAREHOUSE BULK A  - STORY GROUND WAREHOUSE BULK LIGHTS,WAREHOUSE BLDG_LIGHT_STORAGE_SCH,ZONE WAREHOUSE BULK A  - STORY GROUND,278.39,0.0,1048.802,3.767,N/A,0.000,0.420,0.180,0.400,1.000,General,0.000,1048.802
 Lights Internal Gains Nominal, WAREHOUSE BULK C  - STORY GROUND WAREHOUSE BULK LIGHTS,WAREHOUSE BLDG_LIGHT_STORAGE_SCH,ZONE WAREHOUSE BULK C  - STORY GROUND,278.39,0.0,1048.802,3.767,N/A,0.000,0.420,0.180,0.400,1.000,General,0.000,1048.802
 Lights Internal Gains Nominal, WAREHOUSE BULK B  - STORY GROUND WAREHOUSE BULK LIGHTS,WAREHOUSE BLDG_LIGHT_STORAGE_SCH,ZONE WAREHOUSE BULK B  - STORY GROUND,3452.51,0.0,13006.867,3.767,N/A,0.000,0.420,0.180,0.400,1.000,General,0.000,13006.867
 Lights Internal Gains Nominal, WAREHOUSE FINE A END_B - STORY GROUND WAREHOUSE FINE LIGHTS,WAREHOUSE BLDG_LIGHT_STORAGE_SCH,ZONE WAREHOUSE FINE A END_B - STORY GROUND,20.90,0.0,155.250,7.427,N/A,0.000,0.420,0.180,0.400,1.000,General,0.000,155.250
 Lights Internal Gains Nominal, WAREHOUSE FINE C END_B - STORY GROUND WAREHOUSE FINE LIGHTS,WAREHOUSE BLDG_LIGHT_STORAGE_SCH,ZONE WAREHOUSE FINE C END_B - STORY GROUND,20.90,0.0,155.250,7.427,N/A,0.000,0.420,0.180,0.400,1.000,General,0.000,155.250
 Lights Internal Gains Nominal, WAREHOUSE FINE A  - STORY GROUND WAREHOUSE FINE LIGHTS,WAREHOUSE BLDG_LIGHT_STORAGE_SCH,ZONE WAREHOUSE FINE A  - STORY GROUND,109.24,0.0,811.310,7.427,N/A,0.000,0.420,0.180,0.400,1.000,General,0.000,811.310
 Lights Internal Gains Nominal, WAREHOUSE FINE B  - STORY GROUND WAREHOUSE FINE LIGHTS,WAREHOUSE BLDG_LIGHT_STORAGE_SCH,ZONE WAREHOUSE FINE B  - STORY GROUND,1354.71,0.0,10061.584,7.427,N/A,0.000,0.420,0.180,0.400,1.000,General,0.000,10061.584
 Lights Internal Gains Nominal, WAREHOUSE FINE B END_B - STORY GROUND WAREHOUSE FINE LIGHTS,WAREHOUSE BLDG_LIGHT_STORAGE_SCH,ZONE WAREHOUSE FINE B END_B - STORY GROUND,259.23,0.0,1925.356,7.427,N/A,0.000,0.420,0.180,0.400,1.000,General,0.000,1925.356
 Lights Internal Gains Nominal, WAREHOUSE FINE C  - STORY GROUND WAREHOUSE FINE LIGHTS,WAREHOUSE BLDG_LIGHT_STORAGE_SCH,ZONE WAREHOUSE FINE C  - STORY GROUND,109.24,0.0,811.310,7.427,N/A,0.000,0.420,0.180,0.400,1.000,General,0.000,811.310
 Lights Internal Gains Nominal, WAREHOUSE OFFICE C  - STORY GROUND WAREHOUSE OFFICE LIGHTS,WAREHOUSE BLDG_LIGHT_OFFICE_SCH_2013,ZONE WAREHOUSE OFFICE C  - STORY GROUND,22.13,0.5,188.152,8.503,403.061,0.000,0.370,0.180,0.450,1.000,General,0.000,188.152
 Lights Internal Gains Nominal, WAREHOUSE OFFICE A  - STORY GROUND WAREHOUSE OFFICE LIGHTS,WAREHOUSE BLDG_LIGHT_OFFICE_SCH_2013,ZONE WAREHOUSE OFFICE A  - STORY GROUND,22.13,0.5,188.152,8.503,403.061,0.000,0.370,0.180,0.450,1.000,General,0.000,188.152
 Lights Internal Gains Nominal, WAREHOUSE OFFICE B  - STORY GROUND WAREHOUSE OFFICE LIGHTS,WAREHOUSE BLDG_LIGHT_OFFICE_SCH_2013,ZONE WAREHOUSE OFFICE B  - STORY GROUND,274.40,5.8,2333.396,8.503,403.061,0.000,0.370,0.180,0.450,1.000,General,0.000,2333.396
! <ElectricEquipment Internal Gains Nominal>,Name,Schedule Name,Zone Name,Zone Floor Area {m2},# Zone Occupants,Equipment Level {W},Equipment/Floor Area {W/m2},Equipment per person {W/person},Fraction Latent,Fraction Radiant,Fraction Lost,Fraction Convected,End-Use SubCategory,Nominal Minimum Equipment Level {W},Nominal Maximum Equipment Level {W}
 ElectricEquipment Internal Gains Nominal, WAREHOUSE BULK A END_A - STORY GROUND ELECTRIC EQUIPMENT 2,WAREHOUSE BLDG EQUIP,ZONE WAREHOUSE BULK A END_A - STORY GROUND,20.90,0.0,376.257,18.000,N/A,0.000,0.000,0.950,5.000E-002,General,0.000,376.257
 ElectricEquipment Internal Gains Nominal, WAREHOUSE BULK B END_A - STORY GROUND ELECTRIC EQUIPMENT 2,WAREHOUSE BLDG EQUIP,ZONE WAREHOUSE BULK B END_A - STORY GROUND,259.23,0.0,4666.210,18.000,N/A,0.000,0.000,0.950,5.000E-002,General,0.000,4666.210
 ElectricEquipment Internal Gains Nominal, WAREHOUSE BULK C END_A - STORY GROUND ELECTRIC EQUIPMENT 2,WAREHOUSE BLDG EQUIP,ZONE WAREHOUSE BULK C END_A - STORY GROUND,20.90,0.0,376.257,18.000,N/A,0.000,0.000,0.950,5.000E-002,General,0.000,376.257
 ElectricEquipment Internal Gains Nominal, WAREHOUSE BULK A  - STORY GROUND ELECTRIC EQUIPMENT 2,WAREHOUSE BLDG EQUIP,ZONE WAREHOUSE BULK A  - STORY GROUND,278.39,0.0,5011.039,18.000,N/A,0.000,0.000,0.950,5.000E-002,General,0.000,5011.039
 ElectricEquipment Internal Gains Nominal, WAREHOUSE BULK C  - STORY GROUND ELECTRIC EQUIPMENT 2,WAREHOUSE BLDG EQUIP,ZONE WAREHOUSE BULK C  - STORY GROUND,278.39,0.0,5011.039,18.000,N/A,0.000,0.000,0.950,5.000E-002,General,0.000,5011.039
 ElectricEquipment Internal Gains Nominal, WAREHOUSE BULK B  - STORY GROUND ELECTRIC EQUIPMENT 2,WAREHOUSE BLDG EQUIP,ZONE WAREHOUSE BULK B  - STORY GROUND,3452.51,0.0,62145.128,18.000,N/A,0.000,0.000,0.950,5.000E-002,General,0.000,62145.128
 ElectricEquipment Internal Gains Nominal, WAREHOUSE BULK A END_A - STORY GROUND WAREHOUSE BULK ELEC EQUIP,WAREHOUSE BLDG EQUIP,ZONE WAREHOUSE BULK A END_A - STORY GROUND,20.90,0.0,53.479,2.558,N/A,0.000,0.500,0.000,0.500,General,0.000,53.479
 ElectricEquipment Internal Gains Nominal, WAREHOUSE BULK B END_A - STORY GROUND WAREHOUSE BULK ELEC EQUIP,WAREHOUSE BLDG EQUIP,ZONE WAREHOUSE BULK B END_A - STORY GROUND,259.23,0.0,663.228,2.558,N/A,0.000,0.500,0.000,0.500,General,0.000,663.228
 ElectricEquipment Internal Gains Nominal, WAREHOUSE BULK C END_A - STORY GROUND WAREHOUSE BULK ELEC EQUIP,WAREHOUSE BLDG EQUIP,ZONE WAREHOUSE BULK C END_A - STORY GROUND,20.90,0.0,53.479,2.558,N/A,0.000,0.500,0.000,0.500,General,0.000,53.479
 ElectricEquipment Internal Gains Nominal, WAREHOUSE BULK A  - STORY GROUND WAREHOUSE BULK ELEC EQUIP,WAREHOUSE BLDG EQUIP,ZONE WAREHOUSE BULK A  - STORY GROUND,278.39,0.0,712.240,2.558,N/A,0.000,0.500,0.000,0.500,General,0.000,712.240
 ElectricEquipment Internal Gains Nominal, WAREHOUSE BULK C  - STORY GROUND WAREHOUSE BULK ELEC EQUIP,WAREHOUSE BLDG EQUIP,ZONE WAREHOUSE BULK C  - STORY GROUND,278.39,0.0,712.240,2.558,N/A,0.000,0.500,0.000,0.500,General,0.000,712.240
 ElectricEquipment Internal Gains Nominal, WAREHOUSE BULK B  - STORY GROUND WAREHOUSE BULK ELEC EQUIP,WAREHOUSE BLDG EQUIP,ZONE WAREHOUSE BULK B  - STORY GROUND,3452.51,0.0,8832.950,2.558,N/A,0.000,0.500,0.000,0.500,General,0.000,8832.950
 ElectricEquipment Internal Gains Nominal, WAREHOUSE OFFICE C  - STORY GROUND ELECTRIC EQUIPMENT 1,WAREHOUSE OFFICE_PLUG_SCH_2013,ZONE WAREHOUSE OFFICE C  - STORY GROUND,22.13,0.5,331.897,15.000,710.993,0.000,0.000,0.950,5.000E-002,General,0.000,331.897
 ElectricEquipment Internal Gains Nominal, WAREHOUSE OFFICE A  - STORY GROUND ELECTRIC EQUIPMENT 1,WAREHOUSE OFFICE_PLUG_SCH_2013,ZONE WAREHOUSE OFFICE A  - STORY GROUND,22.13,0.5,331.897,15.000,710.993,0.000,0.000,0.950,5.000E-002,General,0.000,331.897
 ElectricEquipment Internal Gains Nominal, WAREHOUSE OFFICE B  - STORY GROUND ELECTRIC EQUIPMENT 1,WAREHOUSE OFFICE_PLUG_SCH_2013,ZONE WAREHOUSE OFFICE B  - STORY GROUND,274.40,5.8,4116.068,15.000,710.993,0.000,0.000,0.950,5.000E-002,General,0.000,4116.068
 ElectricEquipment Internal Gains Nominal, WAREHOUSE OFFICE C  - STORY GROUND WAREHOUSE OFFICE ELEC EQUIP,WAREHOUSE OFFICE_PLUG_SCH_2013,ZONE WAREHOUSE OFFICE C  - STORY GROUND,22.13,0.5,178.625,8.073,382.653,0.000,0.500,0.000,0.500,General,0.000,178.625
 ElectricEquipment Internal Gains Nominal, WAREHOUSE OFFICE A  - STORY GROUND WAREHOUSE OFFICE ELEC EQUIP,WAREHOUSE OFFICE_PLUG_SCH_2013,ZONE WAREHOUSE OFFICE A  - STORY GROUND,22.13,0.5,178.625,8.073,382.653,0.000,0.500,0.000,0.500,General,0.000,178.625
 ElectricEquipment Internal Gains Nominal, WAREHOUSE OFFICE B  - STORY GROUND WAREHOUSE OFFICE ELEC EQUIP,WAREHOUSE OFFICE_PLUG_SCH_2013,ZONE WAREHOUSE OFFICE B  - STORY GROUND,274.40,5.8,2215.249,8.073,382.653,0.000,0.500,0.000,0.500,General,0.000,2215.249
! <Shadowing/Sun Position Calculations Annual Simulations>, Shading Calculation Method, Shading Calculation Update Frequency Method, Shading Calculation Update Frequency {days}, Maximum Figures in Shadow Overlap Calculations {}, Polygon Clipping Algorithm, Pixel Counting Resolution, Sky Diffuse Modeling Algorithm, Output External Shading Calculation Results, Disable Self-Shading Within Shading Zone Groups, Disable Self-Shading From Shading Zone Groups to Other Zones
Shadowing/Sun Position Calculations Annual Simulations,PolygonClipping,Periodic,30,15000,SutherlandHodgman,512,SimpleSkyDiffuseModeling,No,No,No
! <Enclosure/Window Adjacency Daylighting Counts>, Enclosure Name, Number of Exterior Windows, Number of Exterior Windows in Adjacent Enclosures
Enclosure/Window Adjacency Daylighting Counts, WAREHOUSE BULK A  - STORY GROUND,1,0
Enclosure/Window Adjacency Daylighting Counts, WAREHOUSE BULK B END_A - STORY GROUND,1,0
Enclosure/Window Adjacency Daylighting Counts, WAREHOUSE BULK C  - STORY GROUND,1,0
Enclosure/Window Adjacency Daylighting Counts, WAREHOUSE FINE A  - STORY GROUND,1,0
Enclosure/Window Adjacency Daylighting Counts, WAREHOUSE FINE B END_B - STORY GROUND,1,0
Enclosure/Window Adjacency Daylighting Counts, WAREHOUSE FINE C  - STORY GROUND,1,0
! <Enclosure/Window Adjacency Daylighting Matrix>, Enclosure Name, Number of Adjacent Enclosures with Windows,Adjacent Enclosure Names - 1st 100 (max)
Enclosure/Window Adjacency Daylighting Matrix, WAREHOUSE BULK A  - STORY GROUND,0
Enclosure/Window Adjacency Daylighting Matrix, WAREHOUSE BULK B END_A - STORY GROUND,0
Enclosure/Window Adjacency Daylighting Matrix, WAREHOUSE BULK C  - STORY GROUND,0
Enclosure/Window Adjacency Daylighting Matrix, WAREHOUSE FINE A  - STORY GROUND,0
Enclosure/Window Adjacency Daylighting Matrix, WAREHOUSE FINE B END_B - STORY GROUND,0
Enclosure/Window Adjacency Daylighting Matrix, WAREHOUSE FINE C  - STORY GROUND,0
! <Water Heater Information>,Type,Name,Volume {m3},Maximum Capacity {W},Standard Rated Recovery Efficiency, Standard Rated Energy Factor
! <ZoneInfiltration Airflow Stats Nominal>,Name,Schedule Name,Zone Name, Zone Floor Area {m2}, # Zone Occupants,Design Volume Flow Rate {m3/s},Volume Flow Rate/Floor Area {m3/s-m2},Volume Flow Rate/Exterior Surface Area {m3/s-m2},ACH - Air Changes per Hour,Equation A - Constant Term Coefficient {},Equation B - Temperature Term Coefficient {1/C},Equation C - Velocity Term Coefficient {s/m}, Equation D - Velocity Squared Term Coefficient {s2/m2}
 ZoneInfiltration Airflow Stats Nominal, WAREHOUSE BULK A  - STORY GROUND INFILTRATION,ALWAYS ON DISCRETE,ZONE WAREHOUSE BULK A  - STORY GROUND,278.39,0.0,0.634,2.278E-003,4.557E-004,0.448,0.000,0.000,0.224,0.000
 ZoneInfiltration Airflow Stats Nominal, WAREHOUSE BULK A END_A - STORY GROUND INFILTRATION,ALWAYS ON DISCRETE,ZONE WAREHOUSE BULK A END_A - STORY GROUND,20.90,0.0,9.525E-002,4.557E-003,5.063E-004,0.897,0.000,0.000,0.224,0.000
 ZoneInfiltration Airflow Stats Nominal, WAREHOUSE BULK B END_A - STORY GROUND INFILTRATION,ALWAYS ON DISCRETE,ZONE WAREHOUSE BULK B END_A - STORY GROUND,259.23,0.0,0.591,2.278E-003,4.557E-004,0.448,0.000,0.000,0.224,0.000
 ZoneInfiltration Airflow Stats Nominal, WAREHOUSE BULK C  - STORY GROUND INFILTRATION,ALWAYS ON DISCRETE,ZONE WAREHOUSE BULK C  - STORY GROUND,278.39,0.0,0.634,2.278E-003,4.557E-004,0.448,0.000,0.000,0.224,0.000
 ZoneInfiltration Airflow Stats Nominal, WAREHOUSE BULK C END_A - STORY GROUND INFILTRATION,ALWAYS ON DISCRETE,ZONE WAREHOUSE BULK C END_A - STORY GROUND,20.90,0.0,9.525E-002,4.557E-003,5.063E-004,0.897,0.000,0.000,0.224,0.000
 ZoneInfiltration Airflow Stats Nominal, WAREHOUSE FINE A  - STORY GROUND INFILTRATION,ALWAYS ON DISCRETE,ZONE WAREHOUSE FINE A  - STORY GROUND,109.24,0.0,0.249,2.278E-003,4.557E-004,0.448,0.000,0.000,0.224,0.000
 ZoneInfiltration Airflow Stats Nominal, WAREHOUSE FINE A END_B - STORY GROUND INFILTRATION,ALWAYS ON DISCRETE,ZONE WAREHOUSE FINE A END_B - STORY GROUND,20.90,0.0,9.525E-002,4.557E-003,5.063E-004,0.897,0.000,0.000,0.224,0.000
 ZoneInfiltration Airflow Stats Nominal, WAREHOUSE FINE B END_B - STORY GROUND INFILTRATION,ALWAYS ON DISCRETE,ZONE WAREHOUSE FINE B END_B - STORY GROUND,259.23,0.0,0.591,2.278E-003,4.557E-004,0.448,0.000,0.000,0.224,0.000
 ZoneInfiltration Airflow Stats Nominal, WAREHOUSE FINE C  - STORY GROUND INFILTRATION,ALWAYS ON DISCRETE,ZONE WAREHOUSE FINE C  - STORY GROUND,109.24,0.0,0.249,2.278E-003,4.557E-004,0.448,0.000,0.000,0.224,0.000
 ZoneInfiltration Airflow Stats Nominal, WAREHOUSE FINE C END_B - STORY GROUND INFILTRATION,ALWAYS ON DISCRETE,ZONE WAREHOUSE FINE C END_B - STORY GROUND,20.90,0.0,9.525E-002,4.557E-003,5.063E-004,0.897,0.000,0.000,0.224,0.000
 ZoneInfiltration Airflow Stats Nominal, WAREHOUSE OFFICE A  - STORY GROUND INFILTRATION,ALWAYS ON DISCRETE,ZONE WAREHOUSE OFFICE A  - STORY GROUND,22.13,0.5,5.041E-002,2.278E-003,4.557E-004,0.448,0.000,0.000,0.224,0.000
 ZoneInfiltration Airflow Stats Nominal, WAREHOUSE OFFICE C  - STORY GROUND INFILTRATION,ALWAYS ON DISCRETE,ZONE WAREHOUSE OFFICE C  - STORY GROUND,22.13,0.5,5.041E-002,2.278E-003,4.557E-004,0.448,0.000,0.000,0.224,0.000
! <AirFlow Model>, Simple
 AirFlow Model, Simple
! <RoomAir Model>, Zone Name, Mixing/Mundt/UCSDDV/UCSDCV/UCSDUFI/UCSDUFE/User Defined
RoomAir Model,ZONE WAREHOUSE BULK A  - STORY GROUND,Mixing/Well-Stirred
RoomAir Model,ZONE WAREHOUSE BULK A END_A - STORY GROUND,Mixing/Well-Stirred
RoomAir Model,ZONE WAREHOUSE BULK B  - STORY GROUND,Mixing/Well-Stirred
RoomAir Model,ZONE WAREHOUSE BULK B END_A - STORY GROUND,Mixing/Well-Stirred
RoomAir Model,ZONE WAREHOUSE BULK C  - STORY GROUND,Mixing/Well-Stirred
RoomAir Model,ZONE WAREHOUSE BULK C END_A - STORY GROUND,Mixing/Well-Stirred
RoomAir Model,ZONE WAREHOUSE FINE A  - STORY GROUND,Mixing/Well-Stirred
RoomAir Model,ZONE WAREHOUSE FINE A END_B - STORY GROUND,Mixing/Well-Stirred
RoomAir Model,ZONE WAREHOUSE FINE B  - STORY GROUND,Mixing/Well-Stirred
RoomAir Model,ZONE WAREHOUSE FINE B END_B - STORY GROUND,Mixing/Well-Stirred
RoomAir Model,ZONE WAREHOUSE FINE C  - STORY GROUND,Mixing/Well-Stirred
RoomAir Model,ZONE WAREHOUSE FINE C END_B - STORY GROUND,Mixing/Well-Stirred
RoomAir Model,ZONE WAREHOUSE OFFICE A  - STORY GROUND,Mixing/Well-Stirred
RoomAir Model,ZONE WAREHOUSE OFFICE B  - STORY GROUND,Mixing/Well-Stirred
RoomAir Model,ZONE WAREHOUSE OFFICE C  - STORY GROUND,Mixing/Well-Stirred
! <AirflowNetwork Model:Control>, No Multizone or Distribution/Multizone with Distribution/Multizone without Distribution/Multizone with Distribution only during Fan Operation
AirflowNetwork Model:Control,NoMultizoneOrDistribution
! <Zone Volume Capacitance Multiplier>, Sensible Heat Capacity Multiplier, Moisture Capacity Multiplier, Carbon Dioxide Capacity Multiplier, Generic Contaminant Capacity Multiplier
Zone Volume Capacitance Multiplier,   1.000 ,   1.000,   1.000,   1.000
! <Load Timesteps in Zone Design Calculation Averaging Window>, Value
 Load Timesteps in Zone Design Calculation Averaging Window,    1
! <Heating Sizing Factor Information>, Sizing Factor ID, Value
 Heating Sizing Factor Information, Global,   1.2500    
 Heating Sizing Factor Information, Zone ZONE WAREHOUSE BULK A  - STORY GROUND,   1.2500    
 Heating Sizing Factor Information, Zone ZONE WAREHOUSE BULK A END_A - STORY GROUND,   1.2500    
 Heating Sizing Factor Information, Zone ZONE WAREHOUSE BULK B  - STORY GROUND,   1.2500    
 Heating Sizing Factor Information, Zone ZONE WAREHOUSE BULK B END_A - STORY GROUND,   1.2500    
 Heating Sizing Factor Information, Zone ZONE WAREHOUSE BULK C  - STORY GROUND,   1.2500    
 Heating Sizing Factor Information, Zone ZONE WAREHOUSE BULK C END_A - STORY GROUND,   1.2500    
 Heating Sizing Factor Information, Zone ZONE WAREHOUSE FINE A  - STORY GROUND,   1.2500    
 Heating Sizing Factor Information, Zone ZONE WAREHOUSE FINE A END_B - STORY GROUND,   1.2500    
 Heating Sizing Factor Information, Zone ZONE WAREHOUSE FINE B  - STORY GROUND,   1.2500    
 Heating Sizing Factor Information, Zone ZONE WAREHOUSE FINE B END_B - STORY GROUND,   1.2500    
 Heating Sizing Factor Information, Zone ZONE WAREHOUSE FINE C  - STORY GROUND,   1.2500    
 Heating Sizing Factor Information, Zone ZONE WAREHOUSE FINE C END_B - STORY GROUND,   1.2500    
 Heating Sizing Factor Information, Zone ZONE WAREHOUSE OFFICE A  - STORY GROUND,   1.2500    
 Heating Sizing Factor Information, Zone ZONE WAREHOUSE OFFICE B  - STORY GROUND,   1.2500    
 Heating Sizing Factor Information, Zone ZONE WAREHOUSE OFFICE C  - STORY GROUND,   1.2500    
! <Cooling Sizing Factor Information>, Sizing Factor ID, Value
 Cooling Sizing Factor Information, Global,   1.1500    
 Cooling Sizing Factor Information, Zone ZONE WAREHOUSE BULK A  - STORY GROUND,   1.1500    
 Cooling Sizing Factor Information, Zone ZONE WAREHOUSE BULK A END_A - STORY GROUND,   1.1500    
 Cooling Sizing Factor Information, Zone ZONE WAREHOUSE BULK B  - STORY GROUND,   1.1500    
 Cooling Sizing Factor Information, Zone ZONE WAREHOUSE BULK B END_A - STORY GROUND,   1.1500    
 Cooling Sizing Factor Information, Zone ZONE WAREHOUSE BULK C  - STORY GROUND,   1.1500    
 Cooling Sizing Factor Information, Zone ZONE WAREHOUSE BULK C END_A - STORY GROUND,   1.1500    
 Cooling Sizing Factor Information, Zone ZONE WAREHOUSE FINE A  - STORY GROUND,   1.1500    
 Cooling Sizing Factor Information, Zone ZONE WAREHOUSE FINE A END_B - STORY GROUND,   1.1500    
 Cooling Sizing Factor Information, Zone ZONE WAREHOUSE FINE B  - STORY GROUND,   1.1500    
 Cooling Sizing Factor Information, Zone ZONE WAREHOUSE FINE B END_B - STORY GROUND,   1.1500    
 Cooling Sizing Factor Information, Zone ZONE WAREHOUSE FINE C  - STORY GROUND,   1.1500    
 Cooling Sizing Factor Information, Zone ZONE WAREHOUSE FINE C END_B - STORY GROUND,   1.1500    
 Cooling Sizing Factor Information, Zone ZONE WAREHOUSE OFFICE A  - STORY GROUND,   1.1500    
 Cooling Sizing Factor Information, Zone ZONE WAREHOUSE OFFICE B  - STORY GROUND,   1.1500    
 Cooling Sizing Factor Information, Zone ZONE WAREHOUSE OFFICE C  - STORY GROUND,   1.1500    
! <Sky Daylight Factors>, Sky Type, MonthAndDay, Daylighting Control Name, Enclosure Name, Window Name, Reference Point, Daylight Factor
 Sky Daylight Factors,Clear Sky,08/21,ZONE WAREHOUSE BULK A  - STORY GROUND DAYLIGHTINGCONTROLS,WAREHOUSE BULK A  - STORY GROUND,SUB SURFACE 11,WAREHOUSE BULK A  - STORY GROUND DAYLT SENSOR 1,0.1291
 Sky Daylight Factors,Clear Sky,08/21,ZONE WAREHOUSE BULK A  - STORY GROUND DAYLIGHTINGCONTROLS,WAREHOUSE BULK A  - STORY GROUND,SUB SURFACE 11,WAREHOUSE BULK A  - STORY GROUND DAYLT SENSOR 2,1.3748E-002
 Sky Daylight Factors,Clear Turbid Sky,08/21,ZONE WAREHOUSE BULK A  - STORY GROUND DAYLIGHTINGCONTROLS,WAREHOUSE BULK A  - STORY GROUND,SUB SURFACE 11,WAREHOUSE BULK A  - STORY GROUND DAYLT SENSOR 1,0.1388
 Sky Daylight Factors,Clear Turbid Sky,08/21,ZONE WAREHOUSE BULK A  - STORY GROUND DAYLIGHTINGCONTROLS,WAREHOUSE BULK A  - STORY GROUND,SUB SURFACE 11,WAREHOUSE BULK A  - STORY GROUND DAYLT SENSOR 2,1.4358E-002
 Sky Daylight Factors,Intermediate Sky,08/21,ZONE WAREHOUSE BULK A  - STORY GROUND DAYLIGHTINGCONTROLS,WAREHOUSE BULK A  - STORY GROUND,SUB SURFACE 11,WAREHOUSE BULK A  - STORY GROUND DAYLT SENSOR 1,0.1074
 Sky Daylight Factors,Intermediate Sky,08/21,ZONE WAREHOUSE BULK A  - STORY GROUND DAYLIGHTINGCONTROLS,WAREHOUSE BULK A  - STORY GROUND,SUB SURFACE 11,WAREHOUSE BULK A  - STORY GROUND DAYLT SENSOR 2,1.1115E-002
 Sky Daylight Factors,Overcast Sky,08/21,ZONE WAREHOUSE BULK A  - STORY GROUND DAYLIGHTINGCONTROLS,WAREHOUSE BULK A  - STORY GROUND,SUB SURFACE 11,WAREHOUSE BULK A  - STORY GROUND DAYLT SENSOR 1,5.3090E-002
 Sky Daylight Factors,Overcast Sky,08/21,ZONE WAREHOUSE BULK A  - STORY GROUND DAYLIGHTINGCONTROLS,WAREHOUSE BULK A  - STORY GROUND,SUB SURFACE 11,WAREHOUSE BULK A  - STORY GROUND DAYLT SENSOR 2,6.3336E-003
 Sky Daylight Factors,Clear Sky,08/21,ZONE WAREHOUSE BULK B END_A - STORY GROUND DAYLIGHTINGCONTROLS,WAREHOUSE BULK B END_A - STORY GROUND,SUB SURFACE 12,WAREHOUSE BULK B END_A - STORY GROUND DAYLT SENSOR 1,4.6044E-002
 Sky Daylight Factors,Clear Sky,08/21,ZONE WAREHOUSE BULK B END_A - STORY GROUND DAYLIGHTINGCONTROLS,WAREHOUSE BULK B END_A - STORY GROUND,SUB SURFACE 12,WAREHOUSE BULK B END_A - STORY GROUND DAYLT SENSOR 2,6.4223E-003
 Sky Daylight Factors,Clear Turbid Sky,08/21,ZONE WAREHOUSE BULK B END_A - STORY GROUND DAYLIGHTINGCONTROLS,WAREHOUSE BULK B END_A - STORY GROUND,SUB SURFACE 12,WAREHOUSE BULK B END_A - STORY GROUND DAYLT SENSOR 1,3.7699E-002
 Sky Daylight Factors,Clear Turbid Sky,08/21,ZONE WAREHOUSE BULK B END_A - STORY GROUND DAYLIGHTINGCONTROLS,WAREHOUSE BULK B END_A - STORY GROUND,SUB SURFACE 12,WAREHOUSE BULK B END_A - STORY GROUND DAYLT SENSOR 2,5.4768E-003
 Sky Daylight Factors,Intermediate Sky,08/21,ZONE WAREHOUSE BULK B END_A - STORY GROUND DAYLIGHTINGCONTROLS,WAREHOUSE BULK B END_A - STORY GROUND,SUB SURFACE 12,WAREHOUSE BULK B END_A - STORY GROUND DAYLT SENSOR 1,4.0436E-002
 Sky Daylight Factors,Intermediate Sky,08/21,ZONE WAREHOUSE BULK B END_A - STORY GROUND DAYLIGHTINGCONTROLS,WAREHOUSE BULK B END_A - STORY GROUND,SUB SURFACE 12,WAREHOUSE BULK B END_A - STORY GROUND DAYLT SENSOR 2,5.2595E-003
 Sky Daylight Factors,Overcast Sky,08/21,ZONE WAREHOUSE BULK B END_A - STORY GROUND DAYLIGHTINGCONTROLS,WAREHOUSE BULK B END_A - STORY GROUND,SUB SURFACE 12,WAREHOUSE BULK B END_A - STORY GROUND DAYLT SENSOR 1,5.3088E-002
 Sky Daylight Factors,Overcast Sky,08/21,ZONE WAREHOUSE BULK B END_A - STORY GROUND DAYLIGHTINGCONTROLS,WAREHOUSE BULK B END_A - STORY GROUND,SUB SURFACE 12,WAREHOUSE BULK B END_A - STORY GROUND DAYLT SENSOR 2,6.3142E-003
 Sky Daylight Factors,Clear Sky,08/21,ZONE WAREHOUSE BULK C  - STORY GROUND DAYLIGHTINGCONTROLS,WAREHOUSE BULK C  - STORY GROUND,SUB SURFACE 1,WAREHOUSE BULK C  - STORY GROUND DAYLT SENSOR 1,4.3380E-002
 Sky Daylight Factors,Clear Sky,08/21,ZONE WAREHOUSE BULK C  - STORY GROUND DAYLIGHTINGCONTROLS,WAREHOUSE BULK C  - STORY GROUND,SUB SURFACE 1,WAREHOUSE BULK C  - STORY GROUND DAYLT SENSOR 2,6.2259E-003
 Sky Daylight Factors,Clear Turbid Sky,08/21,ZONE WAREHOUSE BULK C  - STORY GROUND DAYLIGHTINGCONTROLS,WAREHOUSE BULK C  - STORY GROUND,SUB SURFACE 1,WAREHOUSE BULK C  - STORY GROUND DAYLT SENSOR 1,3.4330E-002
 Sky Daylight Factors,Clear Turbid Sky,08/21,ZONE WAREHOUSE BULK C  - STORY GROUND DAYLIGHTINGCONTROLS,WAREHOUSE BULK C  - STORY GROUND,SUB SURFACE 1,WAREHOUSE BULK C  - STORY GROUND DAYLT SENSOR 2,5.1825E-003
 Sky Daylight Factors,Intermediate Sky,08/21,ZONE WAREHOUSE BULK C  - STORY GROUND DAYLIGHTINGCONTROLS,WAREHOUSE BULK C  - STORY GROUND,SUB SURFACE 1,WAREHOUSE BULK C  - STORY GROUND DAYLT SENSOR 1,3.3810E-002
 Sky Daylight Factors,Intermediate Sky,08/21,ZONE WAREHOUSE BULK C  - STORY GROUND DAYLIGHTINGCONTROLS,WAREHOUSE BULK C  - STORY GROUND,SUB SURFACE 1,WAREHOUSE BULK C  - STORY GROUND DAYLT SENSOR 2,4.6477E-003
 Sky Daylight Factors,Overcast Sky,08/21,ZONE WAREHOUSE BULK C  - STORY GROUND DAYLIGHTINGCONTROLS,WAREHOUSE BULK C  - STORY GROUND,SUB SURFACE 1,WAREHOUSE BULK C  - STORY GROUND DAYLT SENSOR 1,5.3090E-002
 Sky Daylight Factors,Overcast Sky,08/21,ZONE WAREHOUSE BULK C  - STORY GROUND DAYLIGHTINGCONTROLS,WAREHOUSE BULK C  - STORY GROUND,SUB SURFACE 1,WAREHOUSE BULK C  - STORY GROUND DAYLT SENSOR 2,6.3336E-003
 Sky Daylight Factors,Clear Sky,08/21,ZONE WAREHOUSE FINE A  - STORY GROUND DAYLIGHTINGCONTROLS,WAREHOUSE FINE A  - STORY GROUND,SUB SURFACE 4,WAREHOUSE FINE A  - STORY GROUND DAYLT SENSOR 1,0.1294
 Sky Daylight Factors,Clear Sky,08/21,ZONE WAREHOUSE FINE A  - STORY GROUND DAYLIGHTINGCONTROLS,WAREHOUSE FINE A  - STORY GROUND,SUB SURFACE 4,WAREHOUSE FINE A  - STORY GROUND DAYLT SENSOR 2,1.2934E-002
 Sky Daylight Factors,Clear Turbid Sky,08/21,ZONE WAREHOUSE FINE A  - STORY GROUND DAYLIGHTINGCONTROLS,WAREHOUSE FINE A  - STORY GROUND,SUB SURFACE 4,WAREHOUSE FINE A  - STORY GROUND DAYLT SENSOR 1,0.1395
 Sky Daylight Factors,Clear Turbid Sky,08/21,ZONE WAREHOUSE FINE A  - STORY GROUND DAYLIGHTINGCONTROLS,WAREHOUSE FINE A  - STORY GROUND,SUB SURFACE 4,WAREHOUSE FINE A  - STORY GROUND DAYLT SENSOR 2,1.3508E-002
 Sky Daylight Factors,Intermediate Sky,08/21,ZONE WAREHOUSE FINE A  - STORY GROUND DAYLIGHTINGCONTROLS,WAREHOUSE FINE A  - STORY GROUND,SUB SURFACE 4,WAREHOUSE FINE A  - STORY GROUND DAYLT SENSOR 1,0.1070
 Sky Daylight Factors,Intermediate Sky,08/21,ZONE WAREHOUSE FINE A  - STORY GROUND DAYLIGHTINGCONTROLS,WAREHOUSE FINE A  - STORY GROUND,SUB SURFACE 4,WAREHOUSE FINE A  - STORY GROUND DAYLT SENSOR 2,1.0454E-002
 Sky Daylight Factors,Overcast Sky,08/21,ZONE WAREHOUSE FINE A  - STORY GROUND DAYLIGHTINGCONTROLS,WAREHOUSE FINE A  - STORY GROUND,SUB SURFACE 4,WAREHOUSE FINE A  - STORY GROUND DAYLT SENSOR 1,5.2716E-002
 Sky Daylight Factors,Overcast Sky,08/21,ZONE WAREHOUSE FINE A  - STORY GROUND DAYLIGHTINGCONTROLS,WAREHOUSE FINE A  - STORY GROUND,SUB SURFACE 4,WAREHOUSE FINE A  - STORY GROUND DAYLT SENSOR 2,5.9496E-003
 Sky Daylight Factors,Clear Sky,08/21,ZONE WAREHOUSE FINE B END_B - STORY GROUND DAYLIGHTINGCONTROLS,WAREHOUSE FINE B END_B - STORY GROUND,SUB SURFACE 7,WAREHOUSE FINE B END_B - STORY GROUND DAYLT SENSOR 1,9.8733E-002
 Sky Daylight Factors,Clear Sky,08/21,ZONE WAREHOUSE FINE B END_B - STORY GROUND DAYLIGHTINGCONTROLS,WAREHOUSE FINE B END_B - STORY GROUND,SUB SURFACE 7,WAREHOUSE FINE B END_B - STORY GROUND DAYLT SENSOR 2,1.1197E-002
 Sky Daylight Factors,Clear Turbid Sky,08/21,ZONE WAREHOUSE FINE B END_B - STORY GROUND DAYLIGHTINGCONTROLS,WAREHOUSE FINE B END_B - STORY GROUND,SUB SURFACE 7,WAREHOUSE FINE B END_B - STORY GROUND DAYLT SENSOR 1,0.1016
 Sky Daylight Factors,Clear Turbid Sky,08/21,ZONE WAREHOUSE FINE B END_B - STORY GROUND DAYLIGHTINGCONTROLS,WAREHOUSE FINE B END_B - STORY GROUND,SUB SURFACE 7,WAREHOUSE FINE B END_B - STORY GROUND DAYLT SENSOR 2,1.1279E-002
 Sky Daylight Factors,Intermediate Sky,08/21,ZONE WAREHOUSE FINE B END_B - STORY GROUND DAYLIGHTINGCONTROLS,WAREHOUSE FINE B END_B - STORY GROUND,SUB SURFACE 7,WAREHOUSE FINE B END_B - STORY GROUND DAYLT SENSOR 1,8.8055E-002
 Sky Daylight Factors,Intermediate Sky,08/21,ZONE WAREHOUSE FINE B END_B - STORY GROUND DAYLIGHTINGCONTROLS,WAREHOUSE FINE B END_B - STORY GROUND,SUB SURFACE 7,WAREHOUSE FINE B END_B - STORY GROUND DAYLT SENSOR 2,9.5176E-003
 Sky Daylight Factors,Overcast Sky,08/21,ZONE WAREHOUSE FINE B END_B - STORY GROUND DAYLIGHTINGCONTROLS,WAREHOUSE FINE B END_B - STORY GROUND,SUB SURFACE 7,WAREHOUSE FINE B END_B - STORY GROUND DAYLT SENSOR 1,5.3088E-002
 Sky Daylight Factors,Overcast Sky,08/21,ZONE WAREHOUSE FINE B END_B - STORY GROUND DAYLIGHTINGCONTROLS,WAREHOUSE FINE B END_B - STORY GROUND,SUB SURFACE 7,WAREHOUSE FINE B END_B - STORY GROUND DAYLT SENSOR 2,6.3142E-003
 Sky Daylight Factors,Clear Sky,08/21,ZONE WAREHOUSE FINE C  - STORY GROUND DAYLIGHTINGCONTROLS,WAREHOUSE FINE C  - STORY GROUND,SUB SURFACE 8,WAREHOUSE FINE C  - STORY GROUND DAYLT SENSOR 1,4.2941E-002
 Sky Daylight Factors,Clear Sky,08/21,ZONE WAREHOUSE FINE C  - STORY GROUND DAYLIGHTINGCONTROLS,WAREHOUSE FINE C  - STORY GROUND,SUB SURFACE 8,WAREHOUSE FINE C  - STORY GROUND DAYLT SENSOR 2,5.8482E-003
 Sky Daylight Factors,Clear Turbid Sky,08/21,ZONE WAREHOUSE FINE C  - STORY GROUND DAYLIGHTINGCONTROLS,WAREHOUSE FINE C  - STORY GROUND,SUB SURFACE 8,WAREHOUSE FINE C  - STORY GROUND DAYLT SENSOR 1,3.3960E-002
 Sky Daylight Factors,Clear Turbid Sky,08/21,ZONE WAREHOUSE FINE C  - STORY GROUND DAYLIGHTINGCONTROLS,WAREHOUSE FINE C  - STORY GROUND,SUB SURFACE 8,WAREHOUSE FINE C  - STORY GROUND DAYLT SENSOR 2,4.8653E-003
 Sky Daylight Factors,Intermediate Sky,08/21,ZONE WAREHOUSE FINE C  - STORY GROUND DAYLIGHTINGCONTROLS,WAREHOUSE FINE C  - STORY GROUND,SUB SURFACE 8,WAREHOUSE FINE C  - STORY GROUND DAYLT SENSOR 1,3.3487E-002
 Sky Daylight Factors,Intermediate Sky,08/21,ZONE WAREHOUSE FINE C  - STORY GROUND DAYLIGHTINGCONTROLS,WAREHOUSE FINE C  - STORY GROUND,SUB SURFACE 8,WAREHOUSE FINE C  - STORY GROUND DAYLT SENSOR 2,4.3616E-003
 Sky Daylight Factors,Overcast Sky,08/21,ZONE WAREHOUSE FINE C  - STORY GROUND DAYLIGHTINGCONTROLS,WAREHOUSE FINE C  - STORY GROUND,SUB SURFACE 8,WAREHOUSE FINE C  - STORY GROUND DAYLT SENSOR 1,5.2716E-002
 Sky Daylight Factors,Overcast Sky,08/21,ZONE WAREHOUSE FINE C  - STORY GROUND DAYLIGHTINGCONTROLS,WAREHOUSE FINE C  - STORY GROUND,SUB SURFACE 8,WAREHOUSE FINE C  - STORY GROUND DAYLT SENSOR 2,5.9496E-003
! <Zone Sizing Information>, Zone Name, Load Type, Calc Des Load {W}, User Des Load {W}, Calc Des Air Flow Rate {m3/s}, User Des Air Flow Rate {m3/s}, Design Day Name, Date/Time of Peak, Temperature at Peak {C}, Humidity Ratio at Peak {kgWater/kgDryAir}, Floor Area {m2}, # Occupants, Calc Outdoor Air Flow Rate {m3/s}, Calc DOAS Heat Addition Rate {W}
 Zone Sizing Information, ZONE WAREHOUSE BULK A  - STORY GROUND, Cooling, 0.00000, 0.00000, 0.00000, 8.48536E-002, KODIAK JULY .4% CONDNS DB=>MCWB, 7/21 16:00:00, 23.87000, 8.28442E-003, 278.39104, 0.00000, 8.48536E-002, 0.00000
 Zone Sizing Information, ZONE WAREHOUSE BULK A  - STORY GROUND, Heating, 28375.68426, 35469.60533, 0.77067, 0.96334, KODIAK ANN HTG 99.6% CONDNS DB, 1/21 07:00:00, -12.80000, 1.24844E-003, 278.39104, 0.00000, 8.48536E-002, 0.00000
 Zone Sizing Information, ZONE WAREHOUSE BULK A END_A - STORY GROUND, Cooling, 0.00000, 0.00000, 0.00000, 6.37129E-003, KODIAK JULY .4% CONDNS DB=>MCWB, 7/21 19:00:00, 22.05500, 8.28162E-003, 20.90318, 0.00000, 6.37129E-003, 0.00000
 Zone Sizing Information, ZONE WAREHOUSE BULK A END_A - STORY GROUND, Heating, 4504.53596, 5630.66995, 0.12234, 0.15293, KODIAK ANN HTG 99.6% CONDNS DB, 1/21 07:00:00, -12.80000, 1.24844E-003, 20.90318, 0.00000, 6.37129E-003, 0.00000
 Zone Sizing Information, ZONE WAREHOUSE BULK B  - STORY GROUND, Cooling, 0.00000, 0.00000, 0.00000, 1.05232, KODIAK JULY .4% CONDNS DB=>MCWB, 7/21 18:00:00, 22.88000, 8.28289E-003, 3452.50711, 0.00000, 1.05232, 0.00000
 Zone Sizing Information, ZONE WAREHOUSE BULK B  - STORY GROUND, Heating, 13618.57178, 17023.21472, 0.36987, 1.05232, KODIAK ANN HTG 99.6% CONDNS DB, 1/21 07:00:00, -12.80000, 1.24844E-003, 3452.50711, 0.00000, 1.05232, 0.00000
 Zone Sizing Information, ZONE WAREHOUSE BULK B END_A - STORY GROUND, Cooling, 0.00000, 0.00000, 0.00000, 7.90145E-002, KODIAK JULY .4% CONDNS DB=>MCWB, 7/21 20:00:00, 21.45000, 8.28069E-003, 259.23389, 0.00000, 7.90145E-002, 0.00000
 Zone Sizing Information, ZONE WAREHOUSE BULK B END_A - STORY GROUND, Heating, 27180.89875, 33976.12344, 0.73822, 0.92277, KODIAK ANN HTG 99.6% CONDNS DB, 1/21 07:00:00, -12.80000, 1.24844E-003, 259.23389, 0.00000, 7.90145E-002, 0.00000
 Zone Sizing Information, ZONE WAREHOUSE BULK C  - STORY GROUND, Cooling, 0.00000, 0.00000, 0.00000, 8.48536E-002, KODIAK JULY .4% CONDNS DB=>MCWB, 7/21 17:00:00, 23.43000, 8.28374E-003, 278.39104, 0.00000, 8.48536E-002, 0.00000
 Zone Sizing Information, ZONE WAREHOUSE BULK C  - STORY GROUND, Heating, 28397.18049, 35496.47562, 0.77125, 0.96406, KODIAK ANN HTG 99.6% CONDNS DB, 1/21 07:00:00, -12.80000, 1.24844E-003, 278.39104, 0.00000, 8.48536E-002, 0.00000
 Zone Sizing Information, ZONE WAREHOUSE BULK C END_A - STORY GROUND, Cooling, 0.00000, 0.00000, 0.00000, 6.37129E-003, KODIAK JULY .4% CONDNS DB=>MCWB, 7/21 21:00:00, 20.95500, 8.27993E-003, 20.90318, 0.00000, 6.37129E-003, 0.00000
 Zone Sizing Information, ZONE WAREHOUSE BULK C END_A - STORY GROUND, Heating, 4507.59169, 5634.48962, 0.12242, 0.15303, KODIAK ANN HTG 99.6% CONDNS DB, 1/21 07:00:00, -12.80000, 1.24844E-003, 20.90318, 0.00000, 6.37129E-003, 0.00000
 Zone Sizing Information, ZONE WAREHOUSE FINE A  - STORY GROUND, Cooling, 9542.57141, 10973.95712, 0.55797, 0.64166, KODIAK AUGUST .4% CONDNS DB=>MCWB, 8/21 15:00:00, 22.60000, 8.70767E-003, 109.23652, 0.00000, 3.32953E-002, 0.00000
 Zone Sizing Information, ZONE WAREHOUSE FINE A  - STORY GROUND, Heating, 14859.04373, 18573.80466, 0.35145, 0.43931, KODIAK ANN HTG 99.6% CONDNS DB, 1/21 07:00:00, -12.80000, 1.24844E-003, 109.23652, 0.00000, 3.32953E-002, 0.00000
 Zone Sizing Information, ZONE WAREHOUSE FINE A END_B - STORY GROUND, Cooling, 3152.76761, 3625.68275, 0.18434, 0.21199, KODIAK JULY .4% CONDNS DB=>MCWB, 7/21 12:00:00, 23.48500, 8.28382E-003, 20.90318, 0.00000, 6.37129E-003, 0.00000
 Zone Sizing Information, ZONE WAREHOUSE FINE A END_B - STORY GROUND, Heating, 5682.24234, 7102.80292, 0.13438, 0.16797, KODIAK ANN HTG 99.6% CONDNS DB, 1/21 07:00:00, -12.80000, 1.24844E-003, 20.90318, 0.00000, 6.37129E-003, 0.00000
 Zone Sizing Information, ZONE WAREHOUSE FINE B  - STORY GROUND, Cooling, 20433.46924, 23498.48962, 1.19476, 1.37397, KODIAK JULY .4% CONDNS DB=>MCWB, 7/21 13:00:00, 23.92500, 8.28450E-003, 1354.71264, 0.00000, 0.41292, 0.00000
 Zone Sizing Information, ZONE WAREHOUSE FINE B  - STORY GROUND, Heating, 15053.10733, 18816.38416, 0.35613, 0.44516, KODIAK ANN HTG 99.6% CONDNS DB, 1/21 07:00:00, -12.80000, 1.24844E-003, 1354.71264, 0.00000, 0.41292, 0.00000
 Zone Sizing Information, ZONE WAREHOUSE FINE B END_B - STORY GROUND, Cooling, 22761.75972, 26176.02368, 1.33087, 1.53050, KODIAK JULY .4% CONDNS DB=>MCWB, 7/21 10:00:00, 22.11000, 8.28170E-003, 259.23389, 0.00000, 7.90145E-002, 0.00000
 Zone Sizing Information, ZONE WAREHOUSE FINE B END_B - STORY GROUND, Heating, 34959.61288, 43699.51610, 0.82687, 1.03359, KODIAK ANN HTG 99.6% CONDNS DB, 1/21 07:00:00, -12.80000, 1.24844E-003, 259.23389, 0.00000, 7.90145E-002, 0.00000
 Zone Sizing Information, ZONE WAREHOUSE FINE C  - STORY GROUND, Cooling, 1460.35284, 1679.40576, 8.53873E-002, 9.81954E-002, KODIAK JULY .4% CONDNS DB=>MCWB, 7/21 14:00:00, 24.20000, 8.28493E-003, 109.23652, 0.00000, 3.32953E-002, 0.00000
 Zone Sizing Information, ZONE WAREHOUSE FINE C  - STORY GROUND, Heating, 14884.87806, 18606.09757, 0.35206, 0.44008, KODIAK ANN HTG 99.6% CONDNS DB, 1/21 07:00:00, -12.80000, 1.24844E-003, 109.23652, 0.00000, 3.32953E-002, 0.00000
 Zone Sizing Information, ZONE WAREHOUSE FINE C END_B - STORY GROUND, Cooling, 2105.82832, 2421.70257, 0.12313, 0.14160, KODIAK JULY .4% CONDNS DB=>MCWB, 7/21 11:00:00, 22.93500, 8.28298E-003, 20.90318, 0.00000, 6.37129E-003, 0.00000
 Zone Sizing Information, ZONE WAREHOUSE FINE C END_B - STORY GROUND, Heating, 5689.85889, 7112.32362, 0.13456, 0.16820, KODIAK ANN HTG 99.6% CONDNS DB, 1/21 07:00:00, -12.80000, 1.24844E-003, 20.90318, 0.00000, 6.37129E-003, 0.00000
 Zone Sizing Information, ZONE WAREHOUSE OFFICE A  - STORY GROUND, Cooling, 5283.73122, 6076.29091, 0.38672, 0.44473, KODIAK JULY .4% CONDNS DB=>MCWB, 7/21 15:00:00, 24.20000, 8.28493E-003, 22.12646, 0.46681, 7.84569E-003, 0.00000
 Zone Sizing Information, ZONE WAREHOUSE OFFICE A  - STORY GROUND, Heating, 8325.61583, 10407.01979, 0.23127, 0.28908, KODIAK ANN HTG 99.6% CONDNS DB, 1/21 09:00:00, -12.80000, 1.24844E-003, 22.12646, 0.46681, 7.84569E-003, 0.00000
 Zone Sizing Information, ZONE WAREHOUSE OFFICE B  - STORY GROUND, Cooling, 40373.51698, 46429.54452, 2.81147, 3.23319, KODIAK JULY .4% CONDNS DB=>MCWB, 7/21 09:00:00, 21.17500, 8.28027E-003, 274.40451, 5.78918, 9.72994E-002, 0.00000
 Zone Sizing Information, ZONE WAREHOUSE OFFICE B  - STORY GROUND, Heating, 44454.07321, 55567.59152, 1.23419, 1.54274, KODIAK ANN HTG 99.6% CONDNS DB, 1/21 09:00:00, -12.80000, 1.24844E-003, 274.40451, 5.78918, 9.72994E-002, 0.00000
 Zone Sizing Information, ZONE WAREHOUSE OFFICE C  - STORY GROUND, Cooling, 3726.07016, 4284.98069, 0.26010, 0.29911, KODIAK JULY .4% CONDNS DB=>MCWB, 7/21 09:00:00, 21.17500, 8.28027E-003, 22.12646, 0.46681, 7.84569E-003, 0.00000
 Zone Sizing Information, ZONE WAREHOUSE OFFICE C  - STORY GROUND, Heating, 8335.79337, 10419.74171, 0.23155, 0.28944, KODIAK ANN HTG 99.6% CONDNS DB, 1/21 09:00:00, -12.80000, 1.24844E-003, 22.12646, 0.46681, 7.84569E-003, 0.00000
! <System Sizing Information>, System Name, Load Type, Peak Load Kind, User Design Capacity, Calc Des Air Flow Rate [m3/s], User Des Air Flow Rate [m3/s], Design Day Name, Date/Time of Peak
 System Sizing Information, ZONE WAREHOUSE FINE A  - STORY GROUND PSZ-AC, Cooling, Sensible, 10639.17, 0.64166, 0.64166, KODIAK AUGUST .4% CONDNS DB=>MCWB, 8/21 05:00:00
 System Sizing Information, ZONE WAREHOUSE FINE A  - STORY GROUND PSZ-AC, Heating, Sensible, 19444.94, 0.43931, 0.43931, KODIAK ANN HTG 99.6% CONDNS DB, 1/21 07:00:00
 System Sizing Information, ZONE WAREHOUSE FINE A END_B - STORY GROUND PSZ-AC, Cooling, Sensible, 3544.84, 0.21199, 0.21199, KODIAK JULY .4% CONDNS DB=>MCWB, 7/21 05:00:00
 System Sizing Information, ZONE WAREHOUSE FINE A END_B - STORY GROUND PSZ-AC, Heating, Sensible, 7217.77, 0.16797, 0.16797, KODIAK ANN HTG 99.6% CONDNS DB, 1/21 07:00:00
 System Sizing Information, ZONE WAREHOUSE FINE B  - STORY GROUND PSZ-AC, Cooling, Sensible, 21749.29, 1.37397, 1.37397, KODIAK JULY .4% CONDNS DB=>MCWB, 7/21 05:00:00
 System Sizing Information, ZONE WAREHOUSE FINE B  - STORY GROUND PSZ-AC, Heating, Sensible, 32705.25, 0.44516, 0.44516, KODIAK ANN HTG 99.6% CONDNS DB, 1/21 07:00:00
 System Sizing Information, ZONE WAREHOUSE FINE B END_B - STORY GROUND PSZ-AC, Cooling, Sensible, 25332.60, 1.53050, 1.53050, KODIAK JULY .4% CONDNS DB=>MCWB, 7/21 05:00:00
 System Sizing Information, ZONE WAREHOUSE FINE B END_B - STORY GROUND PSZ-AC, Heating, Sensible, 45772.35, 1.03359, 1.03359, KODIAK ANN HTG 99.6% CONDNS DB, 1/21 07:00:00
 System Sizing Information, ZONE WAREHOUSE FINE C  - STORY GROUND PSZ-AC, Cooling, Sensible, 1552.76, 9.81954E-002, 9.81954E-002, KODIAK JULY .4% CONDNS DB=>MCWB, 7/21 05:00:00
 System Sizing Information, ZONE WAREHOUSE FINE C  - STORY GROUND PSZ-AC, Heating, Sensible, 19476.76, 0.44008, 0.44008, KODIAK ANN HTG 99.6% CONDNS DB, 1/21 07:00:00
 System Sizing Information, ZONE WAREHOUSE FINE C END_B - STORY GROUND PSZ-AC, Cooling, Sensible, 2355.24, 0.14160, 0.14160, KODIAK JULY .4% CONDNS DB=>MCWB, 7/21 05:00:00
 System Sizing Information, ZONE WAREHOUSE FINE C END_B - STORY GROUND PSZ-AC, Heating, Sensible, 7227.15, 0.16820, 0.16820, KODIAK ANN HTG 99.6% CONDNS DB, 1/21 07:00:00
 System Sizing Information, ZONE WAREHOUSE OFFICE A  - STORY GROUND PSZ-AC, Cooling, Sensible, 5985.18, 0.44473, 0.44473, KODIAK JULY .4% CONDNS DB=>MCWB, 7/21 05:00:00
 System Sizing Information, ZONE WAREHOUSE OFFICE A  - STORY GROUND PSZ-AC, Heating, Sensible, 10564.77, 0.28908, 0.28908, KODIAK ANN HTG 99.6% CONDNS DB, 1/21 09:00:00
 System Sizing Information, ZONE WAREHOUSE OFFICE B  - STORY GROUND PSZ-AC, Cooling, Sensible, 44775.62, 3.23319, 3.23319, KODIAK JULY .4% CONDNS DB=>MCWB, 7/21 05:00:00
 System Sizing Information, ZONE WAREHOUSE OFFICE B  - STORY GROUND PSZ-AC, Heating, Sensible, 58578.42, 1.54274, 1.54274, KODIAK ANN HTG 99.6% CONDNS DB, 1/21 09:00:00
 System Sizing Information, ZONE WAREHOUSE OFFICE C  - STORY GROUND PSZ-AC, Cooling, Sensible, 4144.82, 0.29911, 0.29911, KODIAK JULY .4% CONDNS DB=>MCWB, 7/21 05:00:00
 System Sizing Information, ZONE WAREHOUSE OFFICE C  - STORY GROUND PSZ-AC, Heating, Sensible, 10577.31, 0.28944, 0.28944, KODIAK ANN HTG 99.6% CONDNS DB, 1/21 09:00:00
! <Component Sizing Information>, Component Type, Component Name, Input Field Description, Value
 Component Sizing Information, ZoneHVAC:Baseboard:Convective:Water, ZONE WAREHOUSE BULK A  - STORY GROUND HYDRONIC BASEBOARD, Design Size Maximum Water Flow Rate [m3/s], 7.75821E-004
 Component Sizing Information, ZoneHVAC:Baseboard:Convective:Water, ZONE WAREHOUSE BULK A  - STORY GROUND HYDRONIC BASEBOARD, Design Size U-Factor Times Area Value [W/K], 669.03938
 Component Sizing Information, ZoneHVAC:Baseboard:Convective:Water, ZONE WAREHOUSE BULK A END_A - STORY GROUND HYDRONIC BASEBOARD, Design Size Maximum Water Flow Rate [m3/s], 1.23159E-004
 Component Sizing Information, ZoneHVAC:Baseboard:Convective:Water, ZONE WAREHOUSE BULK A END_A - STORY GROUND HYDRONIC BASEBOARD, Design Size U-Factor Times Area Value [W/K], 106.20755
 Component Sizing Information, ZoneHVAC:Baseboard:Convective:Water, ZONE WAREHOUSE BULK B  - STORY GROUND HYDRONIC BASEBOARD, Design Size Maximum Water Flow Rate [m3/s], 3.72346E-004
 Component Sizing Information, ZoneHVAC:Baseboard:Convective:Water, ZONE WAREHOUSE BULK B  - STORY GROUND HYDRONIC BASEBOARD, Design Size U-Factor Times Area Value [W/K], 321.09748
 Component Sizing Information, ZoneHVAC:Baseboard:Convective:Water, ZONE WAREHOUSE BULK B END_A - STORY GROUND HYDRONIC BASEBOARD, Design Size Maximum Water Flow Rate [m3/s], 7.43154E-004
 Component Sizing Information, ZoneHVAC:Baseboard:Convective:Water, ZONE WAREHOUSE BULK B END_A - STORY GROUND HYDRONIC BASEBOARD, Design Size U-Factor Times Area Value [W/K], 640.86883
 Component Sizing Information, ZoneHVAC:Baseboard:Convective:Water, ZONE WAREHOUSE BULK C  - STORY GROUND HYDRONIC BASEBOARD, Design Size Maximum Water Flow Rate [m3/s], 7.76409E-004
 Component Sizing Information, ZoneHVAC:Baseboard:Convective:Water, ZONE WAREHOUSE BULK C  - STORY GROUND HYDRONIC BASEBOARD, Design Size U-Factor Times Area Value [W/K], 669.54622
 Component Sizing Information, ZoneHVAC:Baseboard:Convective:Water, ZONE WAREHOUSE BULK C END_A - STORY GROUND HYDRONIC BASEBOARD, Design Size Maximum Water Flow Rate [m3/s], 1.23242E-004
 Component Sizing Information, ZoneHVAC:Baseboard:Convective:Water, ZONE WAREHOUSE BULK C END_A - STORY GROUND HYDRONIC BASEBOARD, Design Size U-Factor Times Area Value [W/K], 106.27960
 Component Sizing Information, AirTerminal:SingleDuct:ConstantVolume:NoReheat, ZONE WAREHOUSE FINE A  - STORY GROUND PSZ-AC DIFFUSER, Design Size Maximum Air Flow Rate [m3/s], 0.64166
 Component Sizing Information, AirTerminal:SingleDuct:ConstantVolume:NoReheat, ZONE WAREHOUSE FINE A END_B - STORY GROUND PSZ-AC DIFFUSER, Design Size Maximum Air Flow Rate [m3/s], 0.21199
 Component Sizing Information, AirTerminal:SingleDuct:ConstantVolume:NoReheat, ZONE WAREHOUSE FINE B  - STORY GROUND PSZ-AC DIFFUSER, Design Size Maximum Air Flow Rate [m3/s], 1.37397
 Component Sizing Information, AirTerminal:SingleDuct:ConstantVolume:NoReheat, ZONE WAREHOUSE FINE B END_B - STORY GROUND PSZ-AC DIFFUSER, Design Size Maximum Air Flow Rate [m3/s], 1.53050
 Component Sizing Information, AirTerminal:SingleDuct:ConstantVolume:NoReheat, ZONE WAREHOUSE FINE C  - STORY GROUND PSZ-AC DIFFUSER, Design Size Maximum Air Flow Rate [m3/s], 0.44008
 Component Sizing Information, AirTerminal:SingleDuct:ConstantVolume:NoReheat, ZONE WAREHOUSE FINE C END_B - STORY GROUND PSZ-AC DIFFUSER, Design Size Maximum Air Flow Rate [m3/s], 0.16820
 Component Sizing Information, AirTerminal:SingleDuct:ConstantVolume:NoReheat, ZONE WAREHOUSE OFFICE A  - STORY GROUND PSZ-AC DIFFUSER, Design Size Maximum Air Flow Rate [m3/s], 0.44473
 Component Sizing Information, AirTerminal:SingleDuct:ConstantVolume:NoReheat, ZONE WAREHOUSE OFFICE B  - STORY GROUND PSZ-AC DIFFUSER, Design Size Maximum Air Flow Rate [m3/s], 3.23319
 Component Sizing Information, AirTerminal:SingleDuct:ConstantVolume:NoReheat, ZONE WAREHOUSE OFFICE C  - STORY GROUND PSZ-AC DIFFUSER, Design Size Maximum Air Flow Rate [m3/s], 0.29911
 Component Sizing Information, AirLoopHVAC, ZONE WAREHOUSE FINE A  - STORY GROUND PSZ-AC, Sum of Air Terminal Maximum Heating Flow Rates [m3/s], 0.64166
 Component Sizing Information, AirLoopHVAC, ZONE WAREHOUSE FINE A  - STORY GROUND PSZ-AC, Sum of Air Terminal Minimum Heating Flow Rates [m3/s], 0.64166
 Component Sizing Information, AirLoopHVAC, ZONE WAREHOUSE FINE A  - STORY GROUND PSZ-AC, Sum of Air Terminal Maximum Flow Rates [m3/s], 0.64166
 Component Sizing Information, AirLoopHVAC, ZONE WAREHOUSE FINE A  - STORY GROUND PSZ-AC, Adjusted Heating Design Air Flow Rate [m3/s], 0.64166
 Component Sizing Information, AirLoopHVAC, ZONE WAREHOUSE FINE A  - STORY GROUND PSZ-AC, Adjusted Cooling Design Air Flow Rate [m3/s], 0.64166
 Component Sizing Information, AirLoopHVAC, ZONE WAREHOUSE FINE A  - STORY GROUND PSZ-AC, Adjusted Main Design Air Flow Rate [m3/s], 0.64166
 Component Sizing Information, AirLoopHVAC, ZONE WAREHOUSE FINE A  - STORY GROUND PSZ-AC, User Heating Air Flow Ratio [], 1.00000
 Component Sizing Information, AirLoopHVAC, ZONE WAREHOUSE FINE A  - STORY GROUND PSZ-AC, Calculated Heating Air Flow Ratio [], 1.00000
 Component Sizing Information, AirLoopHVAC, ZONE WAREHOUSE FINE A END_B - STORY GROUND PSZ-AC, Sum of Air Terminal Maximum Heating Flow Rates [m3/s], 0.21199
 Component Sizing Information, AirLoopHVAC, ZONE WAREHOUSE FINE A END_B - STORY GROUND PSZ-AC, Sum of Air Terminal Minimum Heating Flow Rates [m3/s], 0.21199
 Component Sizing Information, AirLoopHVAC, ZONE WAREHOUSE FINE A END_B - STORY GROUND PSZ-AC, Sum of Air Terminal Maximum Flow Rates [m3/s], 0.21199
 Component Sizing Information, AirLoopHVAC, ZONE WAREHOUSE FINE A END_B - STORY GROUND PSZ-AC, Adjusted Heating Design Air Flow Rate [m3/s], 0.21199
 Component Sizing Information, AirLoopHVAC, ZONE WAREHOUSE FINE A END_B - STORY GROUND PSZ-AC, Adjusted Cooling Design Air Flow Rate [m3/s], 0.21199
 Component Sizing Information, AirLoopHVAC, ZONE WAREHOUSE FINE A END_B - STORY GROUND PSZ-AC, Adjusted Main Design Air Flow Rate [m3/s], 0.21199
 Component Sizing Information, AirLoopHVAC, ZONE WAREHOUSE FINE A END_B - STORY GROUND PSZ-AC, User Heating Air Flow Ratio [], 1.00000
 Component Sizing Information, AirLoopHVAC, ZONE WAREHOUSE FINE A END_B - STORY GROUND PSZ-AC, Calculated Heating Air Flow Ratio [], 1.00000
 Component Sizing Information, AirLoopHVAC, ZONE WAREHOUSE FINE B  - STORY GROUND PSZ-AC, Sum of Air Terminal Maximum Heating Flow Rates [m3/s], 1.37397
 Component Sizing Information, AirLoopHVAC, ZONE WAREHOUSE FINE B  - STORY GROUND PSZ-AC, Sum of Air Terminal Minimum Heating Flow Rates [m3/s], 1.37397
 Component Sizing Information, AirLoopHVAC, ZONE WAREHOUSE FINE B  - STORY GROUND PSZ-AC, Sum of Air Terminal Maximum Flow Rates [m3/s], 1.37397
 Component Sizing Information, AirLoopHVAC, ZONE WAREHOUSE FINE B  - STORY GROUND PSZ-AC, Adjusted Heating Design Air Flow Rate [m3/s], 1.37397
 Component Sizing Information, AirLoopHVAC, ZONE WAREHOUSE FINE B  - STORY GROUND PSZ-AC, Adjusted Cooling Design Air Flow Rate [m3/s], 1.37397
 Component Sizing Information, AirLoopHVAC, ZONE WAREHOUSE FINE B  - STORY GROUND PSZ-AC, Adjusted Main Design Air Flow Rate [m3/s], 1.37397
 Component Sizing Information, AirLoopHVAC, ZONE WAREHOUSE FINE B  - STORY GROUND PSZ-AC, User Heating Air Flow Ratio [], 1.00000
 Component Sizing Information, AirLoopHVAC, ZONE WAREHOUSE FINE B  - STORY GROUND PSZ-AC, Calculated Heating Air Flow Ratio [], 1.00000
 Component Sizing Information, AirLoopHVAC, ZONE WAREHOUSE FINE B END_B - STORY GROUND PSZ-AC, Sum of Air Terminal Maximum Heating Flow Rates [m3/s], 1.53050
 Component Sizing Information, AirLoopHVAC, ZONE WAREHOUSE FINE B END_B - STORY GROUND PSZ-AC, Sum of Air Terminal Minimum Heating Flow Rates [m3/s], 1.53050
 Component Sizing Information, AirLoopHVAC, ZONE WAREHOUSE FINE B END_B - STORY GROUND PSZ-AC, Sum of Air Terminal Maximum Flow Rates [m3/s], 1.53050
 Component Sizing Information, AirLoopHVAC, ZONE WAREHOUSE FINE B END_B - STORY GROUND PSZ-AC, Adjusted Heating Design Air Flow Rate [m3/s], 1.53050
 Component Sizing Information, AirLoopHVAC, ZONE WAREHOUSE FINE B END_B - STORY GROUND PSZ-AC, Adjusted Cooling Design Air Flow Rate [m3/s], 1.53050
 Component Sizing Information, AirLoopHVAC, ZONE WAREHOUSE FINE B END_B - STORY GROUND PSZ-AC, Adjusted Main Design Air Flow Rate [m3/s], 1.53050
 Component Sizing Information, AirLoopHVAC, ZONE WAREHOUSE FINE B END_B - STORY GROUND PSZ-AC, User Heating Air Flow Ratio [], 1.00000
 Component Sizing Information, AirLoopHVAC, ZONE WAREHOUSE FINE B END_B - STORY GROUND PSZ-AC, Calculated Heating Air Flow Ratio [], 1.00000
 Component Sizing Information, AirLoopHVAC, ZONE WAREHOUSE FINE C  - STORY GROUND PSZ-AC, Sum of Air Terminal Maximum Heating Flow Rates [m3/s], 0.44008
 Component Sizing Information, AirLoopHVAC, ZONE WAREHOUSE FINE C  - STORY GROUND PSZ-AC, Sum of Air Terminal Minimum Heating Flow Rates [m3/s], 0.44008
 Component Sizing Information, AirLoopHVAC, ZONE WAREHOUSE FINE C  - STORY GROUND PSZ-AC, Sum of Air Terminal Maximum Flow Rates [m3/s], 0.44008
 Component Sizing Information, AirLoopHVAC, ZONE WAREHOUSE FINE C  - STORY GROUND PSZ-AC, Adjusted Heating Design Air Flow Rate [m3/s], 0.44008
 Component Sizing Information, AirLoopHVAC, ZONE WAREHOUSE FINE C  - STORY GROUND PSZ-AC, Adjusted Cooling Design Air Flow Rate [m3/s], 0.44008
 Component Sizing Information, AirLoopHVAC, ZONE WAREHOUSE FINE C  - STORY GROUND PSZ-AC, Adjusted Main Design Air Flow Rate [m3/s], 0.44008
 Component Sizing Information, AirLoopHVAC, ZONE WAREHOUSE FINE C  - STORY GROUND PSZ-AC, User Heating Air Flow Ratio [], 1.00000
 Component Sizing Information, AirLoopHVAC, ZONE WAREHOUSE FINE C  - STORY GROUND PSZ-AC, Calculated Heating Air Flow Ratio [], 1.00000
 Component Sizing Information, AirLoopHVAC, ZONE WAREHOUSE FINE C END_B - STORY GROUND PSZ-AC, Sum of Air Terminal Maximum Heating Flow Rates [m3/s], 0.16820
 Component Sizing Information, AirLoopHVAC, ZONE WAREHOUSE FINE C END_B - STORY GROUND PSZ-AC, Sum of Air Terminal Minimum Heating Flow Rates [m3/s], 0.16820
 Component Sizing Information, AirLoopHVAC, ZONE WAREHOUSE FINE C END_B - STORY GROUND PSZ-AC, Sum of Air Terminal Maximum Flow Rates [m3/s], 0.16820
 Component Sizing Information, AirLoopHVAC, ZONE WAREHOUSE FINE C END_B - STORY GROUND PSZ-AC, Adjusted Heating Design Air Flow Rate [m3/s], 0.16820
 Component Sizing Information, AirLoopHVAC, ZONE WAREHOUSE FINE C END_B - STORY GROUND PSZ-AC, Adjusted Cooling Design Air Flow Rate [m3/s], 0.16820
 Component Sizing Information, AirLoopHVAC, ZONE WAREHOUSE FINE C END_B - STORY GROUND PSZ-AC, Adjusted Main Design Air Flow Rate [m3/s], 0.16820
 Component Sizing Information, AirLoopHVAC, ZONE WAREHOUSE FINE C END_B - STORY GROUND PSZ-AC, User Heating Air Flow Ratio [], 1.00000
 Component Sizing Information, AirLoopHVAC, ZONE WAREHOUSE FINE C END_B - STORY GROUND PSZ-AC, Calculated Heating Air Flow Ratio [], 1.00000
 Component Sizing Information, AirLoopHVAC, ZONE WAREHOUSE OFFICE A  - STORY GROUND PSZ-AC, Sum of Air Terminal Maximum Heating Flow Rates [m3/s], 0.44473
 Component Sizing Information, AirLoopHVAC, ZONE WAREHOUSE OFFICE A  - STORY GROUND PSZ-AC, Sum of Air Terminal Minimum Heating Flow Rates [m3/s], 0.44473
 Component Sizing Information, AirLoopHVAC, ZONE WAREHOUSE OFFICE A  - STORY GROUND PSZ-AC, Sum of Air Terminal Maximum Flow Rates [m3/s], 0.44473
 Component Sizing Information, AirLoopHVAC, ZONE WAREHOUSE OFFICE A  - STORY GROUND PSZ-AC, Adjusted Heating Design Air Flow Rate [m3/s], 0.44473
 Component Sizing Information, AirLoopHVAC, ZONE WAREHOUSE OFFICE A  - STORY GROUND PSZ-AC, Adjusted Cooling Design Air Flow Rate [m3/s], 0.44473
 Component Sizing Information, AirLoopHVAC, ZONE WAREHOUSE OFFICE A  - STORY GROUND PSZ-AC, Adjusted Main Design Air Flow Rate [m3/s], 0.44473
 Component Sizing Information, AirLoopHVAC, ZONE WAREHOUSE OFFICE A  - STORY GROUND PSZ-AC, User Heating Air Flow Ratio [], 1.00000
 Component Sizing Information, AirLoopHVAC, ZONE WAREHOUSE OFFICE A  - STORY GROUND PSZ-AC, Calculated Heating Air Flow Ratio [], 1.00000
 Component Sizing Information, AirLoopHVAC, ZONE WAREHOUSE OFFICE B  - STORY GROUND PSZ-AC, Sum of Air Terminal Maximum Heating Flow Rates [m3/s], 3.23319
 Component Sizing Information, AirLoopHVAC, ZONE WAREHOUSE OFFICE B  - STORY GROUND PSZ-AC, Sum of Air Terminal Minimum Heating Flow Rates [m3/s], 3.23319
 Component Sizing Information, AirLoopHVAC, ZONE WAREHOUSE OFFICE B  - STORY GROUND PSZ-AC, Sum of Air Terminal Maximum Flow Rates [m3/s], 3.23319
 Component Sizing Information, AirLoopHVAC, ZONE WAREHOUSE OFFICE B  - STORY GROUND PSZ-AC, Adjusted Heating Design Air Flow Rate [m3/s], 3.23319
 Component Sizing Information, AirLoopHVAC, ZONE WAREHOUSE OFFICE B  - STORY GROUND PSZ-AC, Adjusted Cooling Design Air Flow Rate [m3/s], 3.23319
 Component Sizing Information, AirLoopHVAC, ZONE WAREHOUSE OFFICE B  - STORY GROUND PSZ-AC, Adjusted Main Design Air Flow Rate [m3/s], 3.23319
 Component Sizing Information, AirLoopHVAC, ZONE WAREHOUSE OFFICE B  - STORY GROUND PSZ-AC, User Heating Air Flow Ratio [], 1.00000
 Component Sizing Information, AirLoopHVAC, ZONE WAREHOUSE OFFICE B  - STORY GROUND PSZ-AC, Calculated Heating Air Flow Ratio [], 1.00000
 Component Sizing Information, AirLoopHVAC, ZONE WAREHOUSE OFFICE C  - STORY GROUND PSZ-AC, Sum of Air Terminal Maximum Heating Flow Rates [m3/s], 0.29911
 Component Sizing Information, AirLoopHVAC, ZONE WAREHOUSE OFFICE C  - STORY GROUND PSZ-AC, Sum of Air Terminal Minimum Heating Flow Rates [m3/s], 0.29911
 Component Sizing Information, AirLoopHVAC, ZONE WAREHOUSE OFFICE C  - STORY GROUND PSZ-AC, Sum of Air Terminal Maximum Flow Rates [m3/s], 0.29911
 Component Sizing Information, AirLoopHVAC, ZONE WAREHOUSE OFFICE C  - STORY GROUND PSZ-AC, Adjusted Heating Design Air Flow Rate [m3/s], 0.29911
 Component Sizing Information, AirLoopHVAC, ZONE WAREHOUSE OFFICE C  - STORY GROUND PSZ-AC, Adjusted Cooling Design Air Flow Rate [m3/s], 0.29911
 Component Sizing Information, AirLoopHVAC, ZONE WAREHOUSE OFFICE C  - STORY GROUND PSZ-AC, Adjusted Main Design Air Flow Rate [m3/s], 0.29911
 Component Sizing Information, AirLoopHVAC, ZONE WAREHOUSE OFFICE C  - STORY GROUND PSZ-AC, User Heating Air Flow Ratio [], 1.00000
 Component Sizing Information, AirLoopHVAC, ZONE WAREHOUSE OFFICE C  - STORY GROUND PSZ-AC, Calculated Heating Air Flow Ratio [], 1.00000
 Component Sizing Information, AirLoopHVAC, ZONE WAREHOUSE FINE A  - STORY GROUND PSZ-AC, Design Supply Air Flow Rate [m3/s], 0.64166
 Component Sizing Information, AirLoopHVAC, ZONE WAREHOUSE FINE A END_B - STORY GROUND PSZ-AC, Design Supply Air Flow Rate [m3/s], 0.21199
 Component Sizing Information, AirLoopHVAC, ZONE WAREHOUSE FINE B  - STORY GROUND PSZ-AC, Design Supply Air Flow Rate [m3/s], 1.37397
 Component Sizing Information, AirLoopHVAC, ZONE WAREHOUSE FINE B END_B - STORY GROUND PSZ-AC, Design Supply Air Flow Rate [m3/s], 1.53050
 Component Sizing Information, AirLoopHVAC, ZONE WAREHOUSE FINE C  - STORY GROUND PSZ-AC, Design Supply Air Flow Rate [m3/s], 0.44008
 Component Sizing Information, AirLoopHVAC, ZONE WAREHOUSE FINE C END_B - STORY GROUND PSZ-AC, Design Supply Air Flow Rate [m3/s], 0.16820
 Component Sizing Information, AirLoopHVAC, ZONE WAREHOUSE OFFICE A  - STORY GROUND PSZ-AC, Design Supply Air Flow Rate [m3/s], 0.44473
 Component Sizing Information, AirLoopHVAC, ZONE WAREHOUSE OFFICE B  - STORY GROUND PSZ-AC, Design Supply Air Flow Rate [m3/s], 3.23319
 Component Sizing Information, AirLoopHVAC, ZONE WAREHOUSE OFFICE C  - STORY GROUND PSZ-AC, Design Supply Air Flow Rate [m3/s], 0.29911
!<Controller:MechanicalVentilation>,Name,Availability Schedule Name,Demand Controlled Ventilation {Yes/No},System Outdoor Air Method,Zone Maximum Outdoor Air Fraction,Number of Zones,Zone Name,DSOA Name,DSZAD Name
 Controller:MechanicalVentilation,CONTROLLER MECHANICAL VENTILATION 1,ZONE WAREHOUSE FINE A  - STORY GROUND PSZ-AC OCC SCH,No,ZoneSum,1.00,1,ZONE WAREHOUSE FINE A  - STORY GROUND,WAREHOUSE FINE VENTILATION,
 Controller:MechanicalVentilation,CONTROLLER MECHANICAL VENTILATION 2,ZONE WAREHOUSE FINE A END_B - STORY GROUND PSZ-AC OCC SCH,No,ZoneSum,1.00,1,ZONE WAREHOUSE FINE A END_B - STORY GROUND,WAREHOUSE FINE VENTILATION,
 Controller:MechanicalVentilation,CONTROLLER MECHANICAL VENTILATION 3,ZONE WAREHOUSE FINE B  - STORY GROUND PSZ-AC OCC SCH,No,ZoneSum,1.00,1,ZONE WAREHOUSE FINE B  - STORY GROUND,WAREHOUSE FINE VENTILATION,
 Controller:MechanicalVentilation,CONTROLLER MECHANICAL VENTILATION 4,ZONE WAREHOUSE FINE B END_B - STORY GROUND PSZ-AC OCC SCH,No,ZoneSum,1.00,1,ZONE WAREHOUSE FINE B END_B - STORY GROUND,WAREHOUSE FINE VENTILATION,
 Controller:MechanicalVentilation,CONTROLLER MECHANICAL VENTILATION 5,ZONE WAREHOUSE FINE C  - STORY GROUND PSZ-AC OCC SCH,No,ZoneSum,1.00,1,ZONE WAREHOUSE FINE C  - STORY GROUND,WAREHOUSE FINE VENTILATION,
 Controller:MechanicalVentilation,CONTROLLER MECHANICAL VENTILATION 6,ZONE WAREHOUSE FINE C END_B - STORY GROUND PSZ-AC OCC SCH,No,ZoneSum,1.00,1,ZONE WAREHOUSE FINE C END_B - STORY GROUND,WAREHOUSE FINE VENTILATION,
 Controller:MechanicalVentilation,CONTROLLER MECHANICAL VENTILATION 7,ZONE WAREHOUSE OFFICE A  - STORY GROUND PSZ-AC OCC SCH,No,ZoneSum,1.00,1,ZONE WAREHOUSE OFFICE A  - STORY GROUND,WAREHOUSE OFFICE VENTILATION,
 Controller:MechanicalVentilation,CONTROLLER MECHANICAL VENTILATION 8,ZONE WAREHOUSE OFFICE B  - STORY GROUND PSZ-AC OCC SCH,No,ZoneSum,1.00,1,ZONE WAREHOUSE OFFICE B  - STORY GROUND,WAREHOUSE OFFICE VENTILATION,
 Controller:MechanicalVentilation,CONTROLLER MECHANICAL VENTILATION 9,ZONE WAREHOUSE OFFICE C  - STORY GROUND PSZ-AC OCC SCH,No,ZoneSum,1.00,1,ZONE WAREHOUSE OFFICE C  - STORY GROUND,WAREHOUSE OFFICE VENTILATION,
 Component Sizing Information, Controller:OutdoorAir, ZONE WAREHOUSE FINE A  - STORY GROUND PSZ-AC OA SYSTEM CONTROLLER, Maximum Outdoor Air Flow Rate [m3/s], 0.64166
 Component Sizing Information, Controller:OutdoorAir, ZONE WAREHOUSE FINE A  - STORY GROUND PSZ-AC OA SYSTEM CONTROLLER, Minimum Outdoor Air Flow Rate [m3/s], 3.32953E-002
 Component Sizing Information, AirLoopHVAC:UnitarySystem, ZONE WAREHOUSE FINE A  - STORY GROUND PSZ-AC UNITARY AC, Design Size Supply Air Flow Rate [m3/s], 0.64166
 Component Sizing Information, AirLoopHVAC:UnitarySystem, ZONE WAREHOUSE FINE A  - STORY GROUND PSZ-AC UNITARY AC, Design Size Heating Supply Air Flow Rate [m3/s], 0.64166
 Component Sizing Information, AirLoopHVAC:UnitarySystem, ZONE WAREHOUSE FINE A  - STORY GROUND PSZ-AC UNITARY AC, Design Size Cooling Supply Air Flow Rate [m3/s], 0.64166
 Component Sizing Information, AirLoopHVAC:UnitarySystem, ZONE WAREHOUSE FINE A  - STORY GROUND PSZ-AC UNITARY AC, User-Specified No Load Supply Air Flow Rate [m3/s], 0.00000
 Component Sizing Information, AirLoopHVAC:UnitarySystem, ZONE WAREHOUSE FINE A  - STORY GROUND PSZ-AC UNITARY AC, Design Size Nominal Cooling Capacity [W], 11463.13466
 Component Sizing Information, Coil:Heating:Water, ZONE WAREHOUSE FINE A  - STORY GROUND PSZ-AC WATER HTG COIL, Design Size Rated Capacity [W], 27875.41333
 Component Sizing Information, Coil:Heating:Water, ZONE WAREHOUSE FINE A  - STORY GROUND PSZ-AC WATER HTG COIL, Design Size Maximum Water Flow Rate [m3/s], 6.09714E-004
 Component Sizing Information, Coil:Heating:Water, ZONE WAREHOUSE FINE A  - STORY GROUND PSZ-AC WATER HTG COIL, Design Size U-Factor Times Area Value [W/K], 661.10949
! <Water Heating Coil Capacity Information>,Component Type,Name,Nominal Total Capacity {W}
Water Heating Coil Capacity Information,Coil:Heating:Water,ZONE WAREHOUSE FINE A  - STORY GROUND PSZ-AC WATER HTG COIL,26889.98
 Component Sizing Information, AirLoopHVAC:UnitarySystem, ZONE WAREHOUSE FINE A  - STORY GROUND PSZ-AC UNITARY AC, Design Size Nominal Heating Capacity [W], 27875.41333
 Component Sizing Information, AirLoopHVAC:UnitarySystem, ZONE WAREHOUSE FINE A  - STORY GROUND PSZ-AC UNITARY AC, Design Size Maximum Supply Air Temperature [C], 50.00000
 Component Sizing Information, AirLoopHVAC:UnitarySystem, ZONE WAREHOUSE FINE A  - STORY GROUND PSZ-AC UNITARY AC, User-Specified Maximum Supply Air Temperature [C], 80.00000
 Component Sizing Information, AirLoopHVAC:UnitarySystem, ZONE WAREHOUSE FINE A  - STORY GROUND PSZ-AC UNITARY AC, User-Specified Supplemental Heating Coil Nominal Capacity [W], 27875.41333
 Component Sizing Information, AirLoopHVAC:UnitarySystem, ZONE WAREHOUSE FINE A  - STORY GROUND PSZ-AC UNITARY AC, Fraction of Supply Air Flow That Goes Through the Controlling Zone, 1.00000
 Component Sizing Information, Coil:Cooling:DX:SingleSpeed, ZONE WAREHOUSE FINE A  - STORY GROUND PSZ-AC 1SPD DX AC CLG COIL 40KBTU/HR 14.0SEER, Design Size Rated Air Flow Rate [m3/s], 0.64166
 Component Sizing Information, Coil:Cooling:DX:SingleSpeed, ZONE WAREHOUSE FINE A  - STORY GROUND PSZ-AC 1SPD DX AC CLG COIL 40KBTU/HR 14.0SEER, Design Size Gross Rated Total Cooling Capacity [W], 11463.13466
 Component Sizing Information, Coil:Cooling:DX:SingleSpeed, ZONE WAREHOUSE FINE A  - STORY GROUND PSZ-AC 1SPD DX AC CLG COIL 40KBTU/HR 14.0SEER, Design Size Gross Rated Sensible Heat Ratio, 0.80067
! <DX Cooling Coil Standard Rating Information>, Component Type, Component Name, Standard Rating (Net) Cooling Capacity {W}, Standard Rated Net COP {W/W}, EER {Btu/W-h}, SEER User {Btu/W-h}, SEER Standard {Btu/W-h}, IEER {Btu/W-h}
 DX Cooling Coil Standard Rating Information, Coil:Cooling:DX:SingleSpeed, ZONE WAREHOUSE FINE A  - STORY GROUND PSZ-AC 1SPD DX AC CLG COIL 40KBTU/HR 14.0SEER, 10959.7, 3.34, 11.40, 11.28, 11.28, 11.22
 DX Cooling Coil Standard Rating Information, Coil:Cooling:DX:SingleSpeed, ZONE WAREHOUSE FINE A  - STORY GROUND PSZ-AC 1SPD DX AC CLG COIL 40KBTU/HR 14.0SEER, 10856.4, 3.21, 10.94, 10.81, 11.12,  
 Component Sizing Information, Fan:OnOff, ZONE WAREHOUSE FINE A  - STORY GROUND PSZ-AC FAN, Design Size Maximum Flow Rate [m3/s], 0.64166
 Component Sizing Information, Coil:Heating:Electric, ZONE WAREHOUSE FINE A  - STORY GROUND PSZ-AC ELECTRIC BACKUP HTG COIL, Design Size Nominal Capacity [W], 27875.41333
 Component Sizing Information, Controller:OutdoorAir, ZONE WAREHOUSE FINE A END_B - STORY GROUND PSZ-AC OA SYSTEM CONTROLLER, Maximum Outdoor Air Flow Rate [m3/s], 0.21199
 Component Sizing Information, Controller:OutdoorAir, ZONE WAREHOUSE FINE A END_B - STORY GROUND PSZ-AC OA SYSTEM CONTROLLER, Minimum Outdoor Air Flow Rate [m3/s], 6.37129E-003
 Component Sizing Information, AirLoopHVAC:UnitarySystem, ZONE WAREHOUSE FINE A END_B - STORY GROUND PSZ-AC UNITARY AC, Design Size Supply Air Flow Rate [m3/s], 0.21199
 Component Sizing Information, AirLoopHVAC:UnitarySystem, ZONE WAREHOUSE FINE A END_B - STORY GROUND PSZ-AC UNITARY AC, Design Size Heating Supply Air Flow Rate [m3/s], 0.21199
 Component Sizing Information, AirLoopHVAC:UnitarySystem, ZONE WAREHOUSE FINE A END_B - STORY GROUND PSZ-AC UNITARY AC, Design Size Cooling Supply Air Flow Rate [m3/s], 0.21199
 Component Sizing Information, AirLoopHVAC:UnitarySystem, ZONE WAREHOUSE FINE A END_B - STORY GROUND PSZ-AC UNITARY AC, User-Specified No Load Supply Air Flow Rate [m3/s], 0.00000
 Component Sizing Information, AirLoopHVAC:UnitarySystem, ZONE WAREHOUSE FINE A END_B - STORY GROUND PSZ-AC UNITARY AC, Design Size Nominal Cooling Capacity [W], 3787.82101
 Component Sizing Information, Coil:Heating:Water, ZONE WAREHOUSE FINE A END_B - STORY GROUND PSZ-AC WATER HTG COIL, Design Size Rated Capacity [W], 9052.09265
 Component Sizing Information, Coil:Heating:Water, ZONE WAREHOUSE FINE A END_B - STORY GROUND PSZ-AC WATER HTG COIL, Design Size Maximum Water Flow Rate [m3/s], 1.97995E-004
 Component Sizing Information, Coil:Heating:Water, ZONE WAREHOUSE FINE A END_B - STORY GROUND PSZ-AC WATER HTG COIL, Design Size U-Factor Times Area Value [W/K], 216.01814
Water Heating Coil Capacity Information,Coil:Heating:Water,ZONE WAREHOUSE FINE A END_B - STORY GROUND PSZ-AC WATER HTG COIL,8811.11
 Component Sizing Information, AirLoopHVAC:UnitarySystem, ZONE WAREHOUSE FINE A END_B - STORY GROUND PSZ-AC UNITARY AC, Design Size Nominal Heating Capacity [W], 9052.09265
 Component Sizing Information, AirLoopHVAC:UnitarySystem, ZONE WAREHOUSE FINE A END_B - STORY GROUND PSZ-AC UNITARY AC, Design Size Maximum Supply Air Temperature [C], 50.00000
 Component Sizing Information, AirLoopHVAC:UnitarySystem, ZONE WAREHOUSE FINE A END_B - STORY GROUND PSZ-AC UNITARY AC, User-Specified Maximum Supply Air Temperature [C], 80.00000
 Component Sizing Information, AirLoopHVAC:UnitarySystem, ZONE WAREHOUSE FINE A END_B - STORY GROUND PSZ-AC UNITARY AC, User-Specified Supplemental Heating Coil Nominal Capacity [W], 9052.09265
[...]
 Component Sizing Information, AirLoopHVAC:UnitarySystem, ZONE WAREHOUSE FINE C END_B - STORY GROUND PSZ-AC UNITARY AC, Design Size Maximum Supply Air Temperature [C], 50.00000
 Component Sizing Information, AirLoopHVAC:UnitarySystem, ZONE WAREHOUSE FINE C END_B - STORY GROUND PSZ-AC UNITARY AC, User-Specified Maximum Supply Air Temperature [C], 80.00000
 Component Sizing Information, AirLoopHVAC:UnitarySystem, ZONE WAREHOUSE FINE C END_B - STORY GROUND PSZ-AC UNITARY AC, User-Specified Supplemental Heating Coil Nominal Capacity [W], 7227.15403
 Component Sizing Information, AirLoopHVAC:UnitarySystem, ZONE WAREHOUSE FINE C END_B - STORY GROUND PSZ-AC UNITARY AC, Fraction of Supply Air Flow That Goes Through the Controlling Zone, 1.00000
 Component Sizing Information, Coil:Cooling:DX:SingleSpeed, ZONE WAREHOUSE FINE C END_B - STORY GROUND PSZ-AC 1SPD DX AC CLG COIL 10KBTU/HR 14.0SEER, Design Size Rated Air Flow Rate [m3/s], 0.16820
 Component Sizing Information, Coil:Cooling:DX:SingleSpeed, ZONE WAREHOUSE FINE C END_B - STORY GROUND PSZ-AC 1SPD DX AC CLG COIL 10KBTU/HR 14.0SEER, Design Size Gross Rated Total Cooling Capacity [W], 2988.65035
 Component Sizing Information, Coil:Cooling:DX:SingleSpeed, ZONE WAREHOUSE FINE C END_B - STORY GROUND PSZ-AC 1SPD DX AC CLG COIL 10KBTU/HR 14.0SEER, Design Size Gross Rated Sensible Heat Ratio, 0.80051
 DX Cooling Coil Standard Rating Information, Coil:Cooling:DX:SingleSpeed, ZONE WAREHOUSE FINE C END_B - STORY GROUND PSZ-AC 1SPD DX AC CLG COIL 10KBTU/HR 14.0SEER, 2856.7, 3.34, 11.38, 11.27, 11.27, 11.20
 DX Cooling Coil Standard Rating Information, Coil:Cooling:DX:SingleSpeed, ZONE WAREHOUSE FINE C END_B - STORY GROUND PSZ-AC 1SPD DX AC CLG COIL 10KBTU/HR 14.0SEER, 2829.6, 3.20, 10.93, 10.80, 11.11,  
 Component Sizing Information, Fan:OnOff, ZONE WAREHOUSE FINE C END_B - STORY GROUND PSZ-AC FAN, Design Size Maximum Flow Rate [m3/s], 0.16820
 Component Sizing Information, Coil:Heating:Electric, ZONE WAREHOUSE FINE C END_B - STORY GROUND PSZ-AC ELECTRIC BACKUP HTG COIL, Design Size Nominal Capacity [W], 7227.15403
 Component Sizing Information, Controller:OutdoorAir, ZONE WAREHOUSE OFFICE A  - STORY GROUND PSZ-AC OA SYSTEM CONTROLLER, Maximum Outdoor Air Flow Rate [m3/s], 0.44473
 Component Sizing Information, Controller:OutdoorAir, ZONE WAREHOUSE OFFICE A  - STORY GROUND PSZ-AC OA SYSTEM CONTROLLER, Minimum Outdoor Air Flow Rate [m3/s], 7.84569E-003
 Component Sizing Information, AirLoopHVAC:UnitarySystem, ZONE WAREHOUSE OFFICE A  - STORY GROUND PSZ-AC UNITARY AC, Design Size Supply Air Flow Rate [m3/s], 0.44473
 Component Sizing Information, AirLoopHVAC:UnitarySystem, ZONE WAREHOUSE OFFICE A  - STORY GROUND PSZ-AC UNITARY AC, Design Size Heating Supply Air Flow Rate [m3/s], 0.44473
 Component Sizing Information, AirLoopHVAC:UnitarySystem, ZONE WAREHOUSE OFFICE A  - STORY GROUND PSZ-AC UNITARY AC, Design Size Cooling Supply Air Flow Rate [m3/s], 0.44473
 Component Sizing Information, AirLoopHVAC:UnitarySystem, ZONE WAREHOUSE OFFICE A  - STORY GROUND PSZ-AC UNITARY AC, User-Specified No Load Supply Air Flow Rate [m3/s], 0.00000
 Component Sizing Information, AirLoopHVAC:UnitarySystem, ZONE WAREHOUSE OFFICE A  - STORY GROUND PSZ-AC UNITARY AC, Design Size Nominal Cooling Capacity [W], 7361.81121
 Component Sizing Information, Coil:Heating:Water, ZONE WAREHOUSE OFFICE A  - STORY GROUND PSZ-AC WATER HTG COIL, Design Size Rated Capacity [W], 16081.80657
 Component Sizing Information, Coil:Heating:Water, ZONE WAREHOUSE OFFICE A  - STORY GROUND PSZ-AC WATER HTG COIL, Design Size Maximum Water Flow Rate [m3/s], 3.51755E-004
 Component Sizing Information, Coil:Heating:Water, ZONE WAREHOUSE OFFICE A  - STORY GROUND PSZ-AC WATER HTG COIL, Design Size U-Factor Times Area Value [W/K], 406.37888
Water Heating Coil Capacity Information,Coil:Heating:Water,ZONE WAREHOUSE OFFICE A  - STORY GROUND PSZ-AC WATER HTG COIL,17006.46
 Component Sizing Information, AirLoopHVAC:UnitarySystem, ZONE WAREHOUSE OFFICE A  - STORY GROUND PSZ-AC UNITARY AC, Design Size Nominal Heating Capacity [W], 16081.80657
 Component Sizing Information, AirLoopHVAC:UnitarySystem, ZONE WAREHOUSE OFFICE A  - STORY GROUND PSZ-AC UNITARY AC, Design Size Maximum Supply Air Temperature [C], 50.00000
 Component Sizing Information, AirLoopHVAC:UnitarySystem, ZONE WAREHOUSE OFFICE A  - STORY GROUND PSZ-AC UNITARY AC, User-Specified Maximum Supply Air Temperature [C], 80.00000
 Component Sizing Information, AirLoopHVAC:UnitarySystem, ZONE WAREHOUSE OFFICE A  - STORY GROUND PSZ-AC UNITARY AC, User-Specified Supplemental Heating Coil Nominal Capacity [W], 16081.80657
 Component Sizing Information, AirLoopHVAC:UnitarySystem, ZONE WAREHOUSE OFFICE A  - STORY GROUND PSZ-AC UNITARY AC, Fraction of Supply Air Flow That Goes Through the Controlling Zone, 1.00000
 Component Sizing Information, Coil:Cooling:DX:SingleSpeed, ZONE WAREHOUSE OFFICE A  - STORY GROUND PSZ-AC 1SPD DX AC CLG COIL 25KBTU/HR 14.0SEER, Design Size Rated Air Flow Rate [m3/s], 0.44473
 Component Sizing Information, Coil:Cooling:DX:SingleSpeed, ZONE WAREHOUSE OFFICE A  - STORY GROUND PSZ-AC 1SPD DX AC CLG COIL 25KBTU/HR 14.0SEER, Design Size Gross Rated Total Cooling Capacity [W], 7361.81121
 Component Sizing Information, Coil:Cooling:DX:SingleSpeed, ZONE WAREHOUSE OFFICE A  - STORY GROUND PSZ-AC 1SPD DX AC CLG COIL 25KBTU/HR 14.0SEER, Design Size Gross Rated Sensible Heat Ratio, 0.80066
 DX Cooling Coil Standard Rating Information, Coil:Cooling:DX:SingleSpeed, ZONE WAREHOUSE OFFICE A  - STORY GROUND PSZ-AC 1SPD DX AC CLG COIL 25KBTU/HR 14.0SEER, 7013.3, 3.29, 11.22, 11.10, 11.10, 10.96
 DX Cooling Coil Standard Rating Information, Coil:Cooling:DX:SingleSpeed, ZONE WAREHOUSE OFFICE A  - STORY GROUND PSZ-AC 1SPD DX AC CLG COIL 25KBTU/HR 14.0SEER, 6941.6, 3.15, 10.75, 10.61, 10.91,  
 Component Sizing Information, Fan:OnOff, ZONE WAREHOUSE OFFICE A  - STORY GROUND PSZ-AC FAN, Design Size Maximum Flow Rate [m3/s], 0.44473
 Component Sizing Information, Coil:Heating:Electric, ZONE WAREHOUSE OFFICE A  - STORY GROUND PSZ-AC ELECTRIC BACKUP HTG COIL, Design Size Nominal Capacity [W], 16081.80657
 Component Sizing Information, Controller:OutdoorAir, ZONE WAREHOUSE OFFICE B  - STORY GROUND PSZ-AC OA SYSTEM CONTROLLER, Maximum Outdoor Air Flow Rate [m3/s], 3.23319
 Component Sizing Information, Controller:OutdoorAir, ZONE WAREHOUSE OFFICE B  - STORY GROUND PSZ-AC OA SYSTEM CONTROLLER, Minimum Outdoor Air Flow Rate [m3/s], 9.72994E-002
 Component Sizing Information, AirLoopHVAC:UnitarySystem, ZONE WAREHOUSE OFFICE B  - STORY GROUND PSZ-AC UNITARY AC, Design Size Supply Air Flow Rate [m3/s], 3.23319
 Component Sizing Information, AirLoopHVAC:UnitarySystem, ZONE WAREHOUSE OFFICE B  - STORY GROUND PSZ-AC UNITARY AC, Design Size Heating Supply Air Flow Rate [m3/s], 3.23319
 Component Sizing Information, AirLoopHVAC:UnitarySystem, ZONE WAREHOUSE OFFICE B  - STORY GROUND PSZ-AC UNITARY AC, Design Size Cooling Supply Air Flow Rate [m3/s], 3.23319
 Component Sizing Information, AirLoopHVAC:UnitarySystem, ZONE WAREHOUSE OFFICE B  - STORY GROUND PSZ-AC UNITARY AC, User-Specified No Load Supply Air Flow Rate [m3/s], 0.00000
 Component Sizing Information, AirLoopHVAC:UnitarySystem, ZONE WAREHOUSE OFFICE B  - STORY GROUND PSZ-AC UNITARY AC, Design Size Nominal Cooling Capacity [W], 53520.69626
 Component Sizing Information, Coil:Heating:Water, ZONE WAREHOUSE OFFICE B  - STORY GROUND PSZ-AC WATER HTG COIL, Design Size Rated Capacity [W], 118443.01300
 Component Sizing Information, Coil:Heating:Water, ZONE WAREHOUSE OFFICE B  - STORY GROUND PSZ-AC WATER HTG COIL, Design Size Maximum Water Flow Rate [m3/s], 2.59069E-003
 Component Sizing Information, Coil:Heating:Water, ZONE WAREHOUSE OFFICE B  - STORY GROUND PSZ-AC WATER HTG COIL, Design Size U-Factor Times Area Value [W/K], 2976.85406
Water Heating Coil Capacity Information,Coil:Heating:Water,ZONE WAREHOUSE OFFICE B  - STORY GROUND PSZ-AC WATER HTG COIL,124390.88
 Component Sizing Information, AirLoopHVAC:UnitarySystem, ZONE WAREHOUSE OFFICE B  - STORY GROUND PSZ-AC UNITARY AC, Design Size Nominal Heating Capacity [W], 118443.01300
 Component Sizing Information, AirLoopHVAC:UnitarySystem, ZONE WAREHOUSE OFFICE B  - STORY GROUND PSZ-AC UNITARY AC, Design Size Maximum Supply Air Temperature [C], 50.00000
 Component Sizing Information, AirLoopHVAC:UnitarySystem, ZONE WAREHOUSE OFFICE B  - STORY GROUND PSZ-AC UNITARY AC, User-Specified Maximum Supply Air Temperature [C], 80.00000
 Component Sizing Information, AirLoopHVAC:UnitarySystem, ZONE WAREHOUSE OFFICE B  - STORY GROUND PSZ-AC UNITARY AC, User-Specified Supplemental Heating Coil Nominal Capacity [W], 118443.01300
 Component Sizing Information, AirLoopHVAC:UnitarySystem, ZONE WAREHOUSE OFFICE B  - STORY GROUND PSZ-AC UNITARY AC, Fraction of Supply Air Flow That Goes Through the Controlling Zone, 1.00000
 Component Sizing Information, Coil:Cooling:DX:SingleSpeed, ZONE WAREHOUSE OFFICE B  - STORY GROUND PSZ-AC 1SPD DX AC CLG COIL 141KBTU/HR 10.8EER, Design Size Rated Air Flow Rate [m3/s], 3.23319
 Component Sizing Information, Coil:Cooling:DX:SingleSpeed, ZONE WAREHOUSE OFFICE B  - STORY GROUND PSZ-AC 1SPD DX AC CLG COIL 141KBTU/HR 10.8EER, Design Size Gross Rated Total Cooling Capacity [W], 53520.69626
 Component Sizing Information, Coil:Cooling:DX:SingleSpeed, ZONE WAREHOUSE OFFICE B  - STORY GROUND PSZ-AC 1SPD DX AC CLG COIL 141KBTU/HR 10.8EER, Design Size Gross Rated Sensible Heat Ratio, 0.80066
 DX Cooling Coil Standard Rating Information, Coil:Cooling:DX:SingleSpeed, ZONE WAREHOUSE OFFICE B  - STORY GROUND PSZ-AC 1SPD DX AC CLG COIL 141KBTU/HR 10.8EER, 50986.8, 3.03, 10.33, 10.23, 10.23, 10.19
 DX Cooling Coil Standard Rating Information, Coil:Cooling:DX:SingleSpeed, ZONE WAREHOUSE OFFICE B  - STORY GROUND PSZ-AC 1SPD DX AC CLG COIL 141KBTU/HR 10.8EER, 50466.0, 2.91, 9.92, 9.80, 10.08,  
 Component Sizing Information, Fan:OnOff, ZONE WAREHOUSE OFFICE B  - STORY GROUND PSZ-AC FAN, Design Size Maximum Flow Rate [m3/s], 3.23319
 Component Sizing Information, Coil:Heating:Electric, ZONE WAREHOUSE OFFICE B  - STORY GROUND PSZ-AC ELECTRIC BACKUP HTG COIL, Design Size Nominal Capacity [W], 118443.01300
 Component Sizing Information, Controller:OutdoorAir, ZONE WAREHOUSE OFFICE C  - STORY GROUND PSZ-AC OA SYSTEM CONTROLLER, Maximum Outdoor Air Flow Rate [m3/s], 0.29911
 Component Sizing Information, Controller:OutdoorAir, ZONE WAREHOUSE OFFICE C  - STORY GROUND PSZ-AC OA SYSTEM CONTROLLER, Minimum Outdoor Air Flow Rate [m3/s], 7.84569E-003
 Component Sizing Information, AirLoopHVAC:UnitarySystem, ZONE WAREHOUSE OFFICE C  - STORY GROUND PSZ-AC UNITARY AC, Design Size Supply Air Flow Rate [m3/s], 0.29911
 Component Sizing Information, AirLoopHVAC:UnitarySystem, ZONE WAREHOUSE OFFICE C  - STORY GROUND PSZ-AC UNITARY AC, Design Size Heating Supply Air Flow Rate [m3/s], 0.29911
 Component Sizing Information, AirLoopHVAC:UnitarySystem, ZONE WAREHOUSE OFFICE C  - STORY GROUND PSZ-AC UNITARY AC, Design Size Cooling Supply Air Flow Rate [m3/s], 0.29911
 Component Sizing Information, AirLoopHVAC:UnitarySystem, ZONE WAREHOUSE OFFICE C  - STORY GROUND PSZ-AC UNITARY AC, User-Specified No Load Supply Air Flow Rate [m3/s], 0.00000
 Component Sizing Information, AirLoopHVAC:UnitarySystem, ZONE WAREHOUSE OFFICE C  - STORY GROUND PSZ-AC UNITARY AC, Design Size Nominal Cooling Capacity [W], 4951.36911
 Component Sizing Information, Coil:Heating:Water, ZONE WAREHOUSE OFFICE C  - STORY GROUND PSZ-AC WATER HTG COIL, Design Size Rated Capacity [W], 10920.29081
 Component Sizing Information, Coil:Heating:Water, ZONE WAREHOUSE OFFICE C  - STORY GROUND PSZ-AC WATER HTG COIL, Design Size Maximum Water Flow Rate [m3/s], 2.38858E-004
 Component Sizing Information, Coil:Heating:Water, ZONE WAREHOUSE OFFICE C  - STORY GROUND PSZ-AC WATER HTG COIL, Design Size U-Factor Times Area Value [W/K], 275.06258
Water Heating Coil Capacity Information,Coil:Heating:Water,ZONE WAREHOUSE OFFICE C  - STORY GROUND PSZ-AC WATER HTG COIL,11495.08
 Component Sizing Information, AirLoopHVAC:UnitarySystem, ZONE WAREHOUSE OFFICE C  - STORY GROUND PSZ-AC UNITARY AC, Design Size Nominal Heating Capacity [W], 10920.29081
 Component Sizing Information, AirLoopHVAC:UnitarySystem, ZONE WAREHOUSE OFFICE C  - STORY GROUND PSZ-AC UNITARY AC, Design Size Maximum Supply Air Temperature [C], 50.00000
 Component Sizing Information, AirLoopHVAC:UnitarySystem, ZONE WAREHOUSE OFFICE C  - STORY GROUND PSZ-AC UNITARY AC, User-Specified Maximum Supply Air Temperature [C], 80.00000
 Component Sizing Information, AirLoopHVAC:UnitarySystem, ZONE WAREHOUSE OFFICE C  - STORY GROUND PSZ-AC UNITARY AC, User-Specified Supplemental Heating Coil Nominal Capacity [W], 10920.29081
 Component Sizing Information, AirLoopHVAC:UnitarySystem, ZONE WAREHOUSE OFFICE C  - STORY GROUND PSZ-AC UNITARY AC, Fraction of Supply Air Flow That Goes Through the Controlling Zone, 1.00000
 Component Sizing Information, Coil:Cooling:DX:SingleSpeed, ZONE WAREHOUSE OFFICE C  - STORY GROUND PSZ-AC 1SPD DX AC CLG COIL 14KBTU/HR 14.0SEER, Design Size Rated Air Flow Rate [m3/s], 0.29911
 Component Sizing Information, Coil:Cooling:DX:SingleSpeed, ZONE WAREHOUSE OFFICE C  - STORY GROUND PSZ-AC 1SPD DX AC CLG COIL 14KBTU/HR 14.0SEER, Design Size Gross Rated Total Cooling Capacity [W], 4951.36911
 Component Sizing Information, Coil:Cooling:DX:SingleSpeed, ZONE WAREHOUSE OFFICE C  - STORY GROUND PSZ-AC 1SPD DX AC CLG COIL 14KBTU/HR 14.0SEER, Design Size Gross Rated Sensible Heat Ratio, 0.80066
 DX Cooling Coil Standard Rating Information, Coil:Cooling:DX:SingleSpeed, ZONE WAREHOUSE OFFICE C  - STORY GROUND PSZ-AC 1SPD DX AC CLG COIL 14KBTU/HR 14.0SEER, 4717.0, 3.29, 11.22, 11.10, 11.10, 10.96
 DX Cooling Coil Standard Rating Information, Coil:Cooling:DX:SingleSpeed, ZONE WAREHOUSE OFFICE C  - STORY GROUND PSZ-AC 1SPD DX AC CLG COIL 14KBTU/HR 14.0SEER, 4668.8, 3.15, 10.75, 10.61, 10.91,  
 Component Sizing Information, Fan:OnOff, ZONE WAREHOUSE OFFICE C  - STORY GROUND PSZ-AC FAN, Design Size Maximum Flow Rate [m3/s], 0.29911
 Component Sizing Information, Coil:Heating:Electric, ZONE WAREHOUSE OFFICE C  - STORY GROUND PSZ-AC ELECTRIC BACKUP HTG COIL, Design Size Nominal Capacity [W], 10920.29081
Water Heater Information,WaterHeater:Mixed,40GAL ELECTRICITY WATER HEATER - 40KBTU/HR 1.0 THERM EFF 1.0 THERM EFF,0.1514,11722.8,3.751,0.4632
 Component Sizing Information, PlantLoop, HOT WATER LOOP, Maximum Loop Flow Rate [m3/s], 1.05028E-002
 Component Sizing Information, PlantLoop, HOT WATER LOOP, Plant Loop Volume [m3], 1.26034
 Component Sizing Information, Pump:VariableSpeed, HOT WATER LOOP PUMP, Design Flow Rate [m3/s], 1.05028E-002
 Component Sizing Information, Pump:VariableSpeed, HOT WATER LOOP PUMP, Design Power Consumption [W], 2698.20390
 Component Sizing Information, DistrictHeating, HOT WATER LOOP DISTRICT HEATING, Design Size Nominal Capacity [W], 489839.60721
 Component Sizing Information, PlantLoop, MAIN SERVICE WATER LOOP, Maximum Loop Flow Rate [m3/s], 0.00000
 Component Sizing Information, PlantLoop, MAIN SERVICE WATER LOOP, Plant Loop Volume [m3], 0.00000
 Component Sizing Information, Pump:VariableSpeed, MAIN SERVICE WATER LOOP WATER MAINS PRESSURE DRIVEN, Design Flow Rate [m3/s], 0.00000
 Component Sizing Information, Pump:VariableSpeed, MAIN SERVICE WATER LOOP WATER MAINS PRESSURE DRIVEN, Design Power Consumption [W], 0.00000
 Component Sizing Information, WaterHeater:Mixed, 40GAL ELECTRICITY WATER HEATER - 40KBTU/HR 1.0 THERM EFF 1.0 THERM EFF, Use Side Design Flow Rate [m3/s], 0.00000
! <Environment>,Environment Name,Environment Type, Start Date, End Date, Start DayOfWeek, Duration {#days}, Source:Start DayOfWeek,  Use Daylight Saving, Use Holidays, Apply Weekend Holiday Rule,  Use Rain Values, Use Snow Values, Sky Temperature Model
! <Environment:Special Days>, Special Day Name, Special Day Type, Source, Start Date, Duration {#days}
! <Environment:Daylight Saving>, Daylight Saving Indicator, Source, Start Date, End Date
! <Environment:WarmupDays>, NumberofWarmupDays
Environment,RUN PERIOD 1,WeatherFileRunPeriod,01/01/2006,12/31/2006,Sunday,365,Use RunPeriod Specified Day,No,No,No,Yes,Yes,Clark and Allen
Environment:Daylight Saving,Yes,InputFile,03/12,11/05
Environment:WarmupDays, 10
! <Tabular Report>,Style,Unit Conversion
Tabular Report,HTML,None
! <Warmup Convergence Information>,Zone Name,Environment Type/Name,Average Warmup Temperature Difference {deltaC},Std Dev Warmup Temperature Difference {deltaC},Max Temperature Pass/Fail Convergence,Min Temperature Pass/Fail Convergence,Average Warmup Load Difference {W},Std Dev Warmup Load Difference {W},Heating Load Pass/Fail Convergence,Cooling Load Pass/Fail Convergence
 Warmup Convergence Information,ZONE WAREHOUSE BULK A  - STORY GROUND,RunPeriod: RUN PERIOD 1,0.1373108555,0.2406517442,Pass,Pass,0.2297234202,0.2106263077,Pass,Pass
 Warmup Convergence Information,ZONE WAREHOUSE BULK A END_A - STORY GROUND,RunPeriod: RUN PERIOD 1,3.0540682390E-002,8.1363341803E-002,Pass,Pass,0.4244954821,1.0161128786,Pass,Pass
 Warmup Convergence Information,ZONE WAREHOUSE BULK B  - STORY GROUND,RunPeriod: RUN PERIOD 1,4.2222822499E-002,3.9491848362E-002,Pass,Pass,0.6385686141,1.8379297227,Pass,Pass
 Warmup Convergence Information,ZONE WAREHOUSE BULK B END_A - STORY GROUND,RunPeriod: RUN PERIOD 1,6.6375329182E-004,4.9901910905E-004,Pass,Pass,0.1626281042,0.1100675771,Pass,Pass
 Warmup Convergence Information,ZONE WAREHOUSE BULK C  - STORY GROUND,RunPeriod: RUN PERIOD 1,4.3185984331E-004,3.0256834793E-004,Pass,Pass,0.1557816691,0.1201690996,Pass,Pass
 Warmup Convergence Information,ZONE WAREHOUSE BULK C END_A - STORY GROUND,RunPeriod: RUN PERIOD 1,9.7686453939E-004,7.0743857300E-004,Pass,Pass,0.1426654177,9.9000347739E-002,Pass,Pass
 Warmup Convergence Information,ZONE WAREHOUSE FINE A  - STORY GROUND,RunPeriod: RUN PERIOD 1,1.1486897194E-005,3.7565246196E-005,Pass,Pass,0.2881172011,0.2376842093,Pass,Pass
 Warmup Convergence Information,ZONE WAREHOUSE FINE A END_B - STORY GROUND,RunPeriod: RUN PERIOD 1,2.2077262311E-004,2.9502469281E-004,Pass,Pass,0.1758871009,0.1154333581,Pass,Pass
 Warmup Convergence Information,ZONE WAREHOUSE FINE B  - STORY GROUND,RunPeriod: RUN PERIOD 1,2.0724163126E-015,1.6747652893E-015,Pass,Pass,8.5607589898E-002,0.1291511777,Pass,Pass
 Warmup Convergence Information,ZONE WAREHOUSE FINE B END_B - STORY GROUND,RunPeriod: RUN PERIOD 1,1.9984014443E-015,1.7993378315E-015,Pass,Pass,0.1424693269,0.1041862759,Pass,Pass
 Warmup Convergence Information,ZONE WAREHOUSE FINE C  - STORY GROUND,RunPeriod: RUN PERIOD 1,2.3684757859E-015,2.0296814897E-015,Pass,Pass,0.1302777676,9.4922836869E-002,Pass,Pass
 Warmup Convergence Information,ZONE WAREHOUSE FINE C END_B - STORY GROUND,RunPeriod: RUN PERIOD 1,3.0190002771E-004,3.1207037398E-004,Pass,Pass,0.1272022004,0.1058761800,Pass,Pass
 Warmup Convergence Information,ZONE WAREHOUSE OFFICE A  - STORY GROUND,RunPeriod: RUN PERIOD 1,1.8825506926E-004,2.9553887539E-004,Pass,Pass,0.2009352942,0.1995683392,Pass,Pass
 Warmup Convergence Information,ZONE WAREHOUSE OFFICE B  - STORY GROUND,RunPeriod: RUN PERIOD 1,1.1842378929E-015,1.3240182151E-015,Pass,Pass,2.0324835951E-002,1.8128198119E-002,Pass,Pass
 Warmup Convergence Information,ZONE WAREHOUSE OFFICE C  - STORY GROUND,RunPeriod: RUN PERIOD 1,2.4211389670E-004,3.0562797053E-004,Pass,Pass,8.2085126912E-002,5.9883394500E-002,Pass,Pass
! <Program Control Information:Threads/Parallel Sims>, Threading Supported,Maximum Number of Threads, Env Set Threads (OMP_NUM_THREADS), EP Env Set Threads (EP_OMP_NUM_THREADS), IDF Set Threads, Number of Threads Used (Interior Radiant Exchange), Number Nominal Surfaces, Number Parallel Sims
Program Control:Threads/Parallel Sims, No,1, N/A, N/A, N/A, N/A, N/A, N/A
End of Data
