{
   "completed_at" : "20230531T215353Z",
   "completed_status" : "Success",
   "created_at" : "20230206T223851Z",
   "current_step" : 3,
   "eplusout_err" : "Program Version,EnergyPlus, Version 23.1.0-87ed9199d4, YMD=2023.05.31 15:53,\n   ************* Beginning Zone Sizing Calculations\n   ** Warning ** ProcessScheduleInput: DecodeHHMMField, Invalid \"until\" field value is not a multiple of the minutes for each timestep: 00:55\n   **   ~~~   ** Other errors may result. Occurred in Day Schedule=ZONE OFFICE WHOLEBUILDING - MD OFFICE B  - STORY GROUND PSZ-AC OCC SCH DEFAULT\n   ** Warning ** ProcessScheduleInput: DecodeHHMMField, Invalid \"until\" field value is not a multiple of the minutes for each timestep: 14:59\n   **   ~~~   ** Other errors may result. Occurred in Day Schedule=ZONE OFFICE WHOLEBUILDING - MD OFFICE B  - STORY GROUND PSZ-AC OCC SCH SATURDAY\n   ** Warning ** ProcessScheduleInput: DecodeHHMMField, Invalid \"until\" field value is not a multiple of the minutes for each timestep: 00:55\n   **   ~~~   ** Other errors may result. Occurred in Day Schedule=ZONE OFFICE WHOLEBUILDING - MD OFFICE A  - STORY GROUND PSZ-AC OCC SCH DEFAULT\n   ** Warning ** ProcessScheduleInput: DecodeHHMMField, Invalid \"until\" field value is not a multiple of the minutes for each timestep: 14:59\n   **   ~~~   ** Other errors may result. Occurred in Day Schedule=ZONE OFFICE WHOLEBUILDING - MD OFFICE A  - STORY GROUND PSZ-AC OCC SCH SATURDAY\n   ** Warning ** ProcessScheduleInput: DecodeHHMMField, Invalid \"until\" field value is not a multiple of the minutes for each timestep: 00:55\n   **   ~~~   ** Other errors may result. Occurred in Day Schedule=ZONE OFFICE WHOLEBUILDING - MD OFFICE A END_A - STORY GROUND PSZ-AC OCC SCH DEFAULT\n   ** Warning ** ProcessScheduleInput: DecodeHHMMField, Invalid \"until\" field value is not a multiple of the minutes for each timestep: 14:59\n   **   ~~~   ** Other errors may result. Occurred in Day Schedule=ZONE OFFICE WHOLEBUILDING - MD OFFICE A END_A - STORY GROUND PSZ-AC OCC SCH SATURDAY\n   ** Warning ** ProcessScheduleInput: DecodeHHMMField, Invalid \"until\" field value is not a multiple of the minutes for each timestep: 00:55\n   **   ~~~   ** Other errors may result. Occurred in Day Schedule=ZONE OFFICE WHOLEBUILDING - MD OFFICE A END_B - STORY GROUND PSZ-AC OCC SCH DEFAULT\n   ** Warning ** ProcessScheduleInput: DecodeHHMMField, Invalid \"until\" field value is not a multiple of the minutes for each timestep: 14:59\n   **   ~~~   ** Other errors may result. Occurred in Day Schedule=ZONE OFFICE WHOLEBUILDING - MD OFFICE A END_B - STORY GROUND PSZ-AC OCC SCH SATURDAY\n   ** Warning ** ProcessScheduleInput: DecodeHHMMField, Invalid \"until\" field value is not a multiple of the minutes for each timestep: 00:55\n   **   ~~~   ** Other errors may result. Occurred in Day Schedule=ZONE OFFICE WHOLEBUILDING - MD OFFICE B END_A - STORY GROUND PSZ-AC OCC SCH DEFAULT\n   ** Warning ** ProcessScheduleInput: DecodeHHMMField, Invalid \"until\" field value is not a multiple of the minutes for each timestep: 14:59\n   **   ~~~   ** Other errors may result. Occurred in Day Schedule=ZONE OFFICE WHOLEBUILDING - MD OFFICE B END_A - STORY GROUND PSZ-AC OCC SCH SATURDAY\n   ** Warning ** ProcessScheduleInput: DecodeHHMMField, Invalid \"until\" field value is not a multiple of the minutes for each timestep: 00:55\n   **   ~~~   ** Other errors may result. Occurred in Day Schedule=ZONE OFFICE WHOLEBUILDING - MD OFFICE B END_B - STORY GROUND PSZ-AC OCC SCH DEFAULT\n   ** Warning ** ProcessScheduleInput: DecodeHHMMField, Invalid \"until\" field value is not a multiple of the minutes for each timestep: 14:59\n   **   ~~~   ** Other errors may result. Occurred in Day Schedule=ZONE OFFICE WHOLEBUILDING - MD OFFICE B END_B - STORY GROUND PSZ-AC OCC SCH SATURDAY\n   ** Warning ** ProcessScheduleInput: DecodeHHMMField, Invalid \"until\" field value is not a multiple of the minutes for each timestep: 00:55\n   **   ~~~   ** Other errors may result. Occurred in Day Schedule=ZONE OFFICE WHOLEBUILDING - MD OFFICE C  - STORY GROUND PSZ-AC OCC SCH DEFAULT\n   ** Warning ** ProcessScheduleInput: DecodeHHMMField, Invalid \"until\" field value is not a multiple of the minutes for each timestep: 14:59\n   **   ~~~   ** Other errors may result. Occurred in Day Schedule=ZONE OFFICE WHOLEBUILDING - MD OFFICE C  - STORY GROUND PSZ-AC OCC SCH SATURDAY\n   ** Warning ** ProcessScheduleInput: DecodeHHMMField, Invalid \"until\" field value is not a multiple of the minutes for each timestep: 00:55\n   **   ~~~   ** Other errors may result. Occurred in Day Schedule=ZONE OFFICE WHOLEBUILDING - MD OFFICE C END_A - STORY GROUND PSZ-AC OCC SCH DEFAULT\n   ** Warning ** ProcessScheduleInput: DecodeHHMMField, Invalid \"until\" field value is not a multiple of the minutes for each timestep: 14:59\n   **   ~~~   ** Other errors may result. Occurred in Day Schedule=ZONE OFFICE WHOLEBUILDING - MD OFFICE C END_A - STORY GROUND PSZ-AC OCC SCH SATURDAY\n   ** Warning ** ProcessScheduleInput: DecodeHHMMField, Invalid \"until\" field value is not a multiple of the minutes for each timestep: 00:55\n   **   ~~~   ** Other errors may result. Occurred in Day Schedule=ZONE OFFICE WHOLEBUILDING - MD OFFICE C END_B - STORY GROUND PSZ-AC OCC SCH DEFAULT\n   ** Warning ** ProcessScheduleInput: DecodeHHMMField, Invalid \"until\" field value is not a multiple of the minutes for each timestep: 14:59\n   **   ~~~   ** Other errors may result. Occurred in Day Schedule=ZONE OFFICE WHOLEBUILDING - MD OFFICE C END_B - STORY GROUND PSZ-AC OCC SCH SATURDAY\n   ** Warning ** ProcessScheduleInput: Schedule:Constant=\"TEMPORARY PIPE INDOOR AMBIENT TEMP 67.3F\", Blank Schedule Type Limits Name input -- will not be validated.\n   ** Warning ** ProcessScheduleInput: Schedule:Constant=\"ALWAYS ON CONTINUOUS\", Blank Schedule Type Limits Name input -- will not be validated.\n   ** Warning ** CheckUsedConstructions: There are 12 nominally unused constructions in input.\n   **   ~~~   ** For explicit details on each unused construction, use Output:Diagnostics,DisplayExtraWarnings;\n   ** Warning ** GetInternalHeatGains: People=\"OFFICE WHOLEBUILDING - MD OFFICE PEOPLE\" has comfort related schedules but no thermal comfort model selected.\n   **   ~~~   ** If schedules are specified for air velocity, clothing insulation, and/or work efficiency but no thermal comfort\n   **   ~~~   ** thermal comfort model is selected, the schedules will be listed as unused schedules in the .err file.\n   **   ~~~   ** To avoid these errors, select a valid thermal comfort model or eliminate these schedules in the PEOPLE input.\n   ** Warning ** GetInternalHeatGains: People=\"OFFICE WHOLEBUILDING - MD OFFICE PEOPLE\" has comfort related schedules but no thermal comfort model selected.\n   **   ~~~   ** If schedules are specified for air velocity, clothing insulation, and/or work efficiency but no thermal comfort\n   **   ~~~   ** thermal comfort model is selected, the schedules will be listed as unused schedules in the .err file.\n   **   ~~~   ** To avoid these errors, select a valid thermal comfort model or eliminate these schedules in the PEOPLE input.\n   ** Warning ** GetInternalHeatGains: People=\"OFFICE WHOLEBUILDING - MD OFFICE PEOPLE\" has comfort related schedules but no thermal comfort model selected.\n   **   ~~~   ** If schedules are specified for air velocity, clothing insulation, and/or work efficiency but no thermal comfort\n   **   ~~~   ** thermal comfort model is selected, the schedules will be listed as unused schedules in the .err file.\n   **   ~~~   ** To avoid these errors, select a valid thermal comfort model or eliminate these schedules in the PEOPLE input.\n   ** Warning ** GetInternalHeatGains: People=\"OFFICE WHOLEBUILDING - MD OFFICE PEOPLE\" has comfort related schedules but no thermal comfort model selected.\n   **   ~~~   ** If schedules are specified for air velocity, clothing insulation, and/or work efficiency but no thermal comfort\n   **   ~~~   ** thermal comfort model is selected, the schedules will be listed as unused schedules in the .err file.\n   **   ~~~   ** To avoid these errors, select a valid thermal comfort model or eliminate these schedules in the PEOPLE input.\n   ** Warning ** GetInternalHeatGains: People=\"OFFICE WHOLEBUILDING - MD OFFICE PEOPLE\" has comfort related schedules but no thermal comfort model selected.\n   **   ~~~   ** If schedules are specified for air velocity, clothing insulation, and/or work efficiency but no thermal comfort\n   **   ~~~   ** thermal comfort model is selected, the schedules will be listed as unused schedules in the .err file.\n   **   ~~~   ** To avoid these errors, select a valid thermal comfort model or eliminate these schedules in the PEOPLE input.\n   ** Warning ** GetInternalHeatGains: People=\"OFFICE WHOLEBUILDING - MD OFFICE PEOPLE\" has comfort related schedules but no thermal comfort model selected.\n   **   ~~~   ** If schedules are specified for air velocity, clothing insulation, and/or work efficiency but no thermal comfort\n   **   ~~~   ** thermal comfort model is selected, the schedules will be listed as unused schedules in the .err file.\n   **   ~~~   ** To avoid these errors, select a valid thermal comfort model or eliminate these schedules in the PEOPLE input.\n   ** Warning ** GetInternalHeatGains: People=\"OFFICE WHOLEBUILDING - MD OFFICE PEOPLE\" has comfort related schedules but no thermal comfort model selected.\n   **   ~~~   ** If schedules are specified for air velocity, clothing insulation, and/or work efficiency but no thermal comfort\n   **   ~~~   ** thermal comfort model is selected, the schedules will be listed as unused schedules in the .err file.\n   **   ~~~   ** To avoid these errors, select a valid thermal comfort model or eliminate these schedules in the PEOPLE input.\n   ** Warning ** GetInternalHeatGains: People=\"OFFICE WHOLEBUILDING - MD OFFICE PEOPLE\" has comfort related schedules but no thermal comfort model selected.\n   **   ~~~   ** If schedules are specified for air velocity, clothing insulation, and/or work efficiency but no thermal comfort\n   **   ~~~   ** thermal comfort model is selected, the schedules will be listed as unused schedules in the .err file.\n   **   ~~~   ** To avoid these errors, select a valid thermal comfort model or eliminate these schedules in the PEOPLE input.\n   ** Warning ** GetInternalHeatGains: People=\"OFFICE WHOLEBUILDING - MD OFFICE PEOPLE\" has comfort related schedules but no thermal comfort model selected.\n   **   ~~~   ** If schedules are specified for air velocity, clothing insulation, and/or work efficiency but no thermal comfort\n   **   ~~~   ** thermal comfort model is selected, the schedules will be listed as unused schedules in the .err file.\n   **   ~~~   ** To avoid these errors, select a valid thermal comfort model or eliminate these schedules in the PEOPLE input.\n   ** Severe  ** WaterHeater:Mixed = 40GAL ELECTRICITY WATER HEATER - 40KBTU/HR 1.0 THERM EFF 1.0 THERM EFF:  Ambient Temperature Zone not found = \n   ************* Beginning System Sizing Calculations\n   ** Warning ** AirLoopHVAC:UnitarySystem = ZONE OFFICE WHOLEBUILDING - MD OFFICE A  - STORY GROUND PSZ-AC UNITARY AC\n   **   ~~~   ** Method used to determine the cooling supply air flow rate is not specified when cooling coil is present.\n   ** Warning ** AirLoopHVAC:UnitarySystem = ZONE OFFICE WHOLEBUILDING - MD OFFICE A  - STORY GROUND PSZ-AC UNITARY AC\n   **   ~~~   ** Method used to determine the heating supply air flow rate is not specified when heating coil is present.\n   ** Warning ** AirLoopHVAC:UnitarySystem = ZONE OFFICE WHOLEBUILDING - MD OFFICE A END_A - STORY GROUND PSZ-AC UNITARY AC\n   **   ~~~   ** Method used to determine the cooling supply air flow rate is not specified when cooling coil is present.\n   ** Warning ** AirLoopHVAC:UnitarySystem = ZONE OFFICE WHOLEBUILDING - MD OFFICE A END_A - STORY GROUND PSZ-AC UNITARY AC\n   **   ~~~   ** Method used to determine the heating supply air flow rate is not specified when heating coil is present.\n   ** Warning ** AirLoopHVAC:UnitarySystem = ZONE OFFICE WHOLEBUILDING - MD OFFICE A END_B - STORY GROUND PSZ-AC UNITARY AC\n   **   ~~~   ** Method used to determine the cooling supply air flow rate is not specified when cooling coil is present.\n   ** Warning ** AirLoopHVAC:UnitarySystem = ZONE OFFICE WHOLEBUILDING - MD OFFICE A END_B - STORY GROUND PSZ-AC UNITARY AC\n   **   ~~~   ** Method used to determine the heating supply air flow rate is not specified when heating coil is present.\n   ** Warning ** AirLoopHVAC:UnitarySystem = ZONE OFFICE WHOLEBUILDING - MD OFFICE B  - STORY GROUND PSZ-AC UNITARY AC\n   **   ~~~   ** Method used to determine the cooling supply air flow rate is not specified when cooling coil is present.\n   ** Warning ** AirLoopHVAC:UnitarySystem = ZONE OFFICE WHOLEBUILDING - MD OFFICE B  - STORY GROUND PSZ-AC UNITARY AC\n   **   ~~~   ** Method used to determine the heating supply air flow rate is not specified when heating coil is present.\n   ** Warning ** AirLoopHVAC:UnitarySystem = ZONE OFFICE WHOLEBUILDING - MD OFFICE B END_A - STORY GROUND PSZ-AC UNITARY AC\n   **   ~~~   ** Method used to determine the cooling supply air flow rate is not specified when cooling coil is present.\n   ** Warning ** AirLoopHVAC:UnitarySystem = ZONE OFFICE WHOLEBUILDING - MD OFFICE B END_A - STORY GROUND PSZ-AC UNITARY AC\n   **   ~~~   ** Method used to determine the heating supply air flow rate is not specified when heating coil is present.\n   ** Warning ** AirLoopHVAC:UnitarySystem = ZONE OFFICE WHOLEBUILDING - MD OFFICE B END_B - STORY GROUND PSZ-AC UNITARY AC\n   **   ~~~   ** Method used to determine the cooling supply air flow rate is not specified when cooling coil is present.\n   ** Warning ** AirLoopHVAC:UnitarySystem = ZONE OFFICE WHOLEBUILDING - MD OFFICE B END_B - STORY GROUND PSZ-AC UNITARY AC\n   **   ~~~   ** Method used to determine the heating supply air flow rate is not specified when heating coil is present.\n   ** Warning ** AirLoopHVAC:UnitarySystem = ZONE OFFICE WHOLEBUILDING - MD OFFICE C  - STORY GROUND PSZ-AC UNITARY AC\n   **   ~~~   ** Method used to determine the cooling supply air flow rate is not specified when cooling coil is present.\n   ** Warning ** AirLoopHVAC:UnitarySystem = ZONE OFFICE WHOLEBUILDING - MD OFFICE C  - STORY GROUND PSZ-AC UNITARY AC\n   **   ~~~   ** Method used to determine the heating supply air flow rate is not specified when heating coil is present.\n   ** Warning ** AirLoopHVAC:UnitarySystem = ZONE OFFICE WHOLEBUILDING - MD OFFICE C END_A - STORY GROUND PSZ-AC UNITARY AC\n   **   ~~~   ** Method used to determine the cooling supply air flow rate is not specified when cooling coil is present.\n   ** Warning ** AirLoopHVAC:UnitarySystem = ZONE OFFICE WHOLEBUILDING - MD OFFICE C END_A - STORY GROUND PSZ-AC UNITARY AC\n   **   ~~~   ** Method used to determine the heating supply air flow rate is not specified when heating coil is present.\n   ** Warning ** AirLoopHVAC:UnitarySystem = ZONE OFFICE WHOLEBUILDING - MD OFFICE C END_B - STORY GROUND PSZ-AC UNITARY AC\n   **   ~~~   ** Method used to determine the cooling supply air flow rate is not specified when cooling coil is present.\n   ** Warning ** AirLoopHVAC:UnitarySystem = ZONE OFFICE WHOLEBUILDING - MD OFFICE C END_B - STORY GROUND PSZ-AC UNITARY AC\n   **   ~~~   ** Method used to determine the heating supply air flow rate is not specified when heating coil is present.\n   ************* Beginning Plant Sizing Calculations\n   ** Warning ** GetOAControllerInputs: Controller:MechanicalVentilation=\"CONTROLLER MECHANICAL VENTILATION 1\"\n   **   ~~~   ** Cannot locate a matching DesignSpecification:ZoneAirDistribution object for Zone=\"ZONE OFFICE WHOLEBUILDING - MD OFFICE A  - STORY GROUND\".\n   **   ~~~   ** Using default zone air distribution effectiveness of 1.0 for heating and cooling.\n   ** Warning ** GetOAControllerInputs: Controller:MechanicalVentilation=\"CONTROLLER MECHANICAL VENTILATION 2\"\n   **   ~~~   ** Cannot locate a matching DesignSpecification:ZoneAirDistribution object for Zone=\"ZONE OFFICE WHOLEBUILDING - MD OFFICE A END_A - STORY GROUND\".\n   **   ~~~   ** Using default zone air distribution effectiveness of 1.0 for heating and cooling.\n   ** Warning ** GetOAControllerInputs: Controller:MechanicalVentilation=\"CONTROLLER MECHANICAL VENTILATION 3\"\n   **   ~~~   ** Cannot locate a matching DesignSpecification:ZoneAirDistribution object for Zone=\"ZONE OFFICE WHOLEBUILDING - MD OFFICE A END_B - STORY GROUND\".\n   **   ~~~   ** Using default zone air distribution effectiveness of 1.0 for heating and cooling.\n   ** Warning ** GetOAControllerInputs: Controller:MechanicalVentilation=\"CONTROLLER MECHANICAL VENTILATION 4\"\n   **   ~~~   ** Cannot locate a matching DesignSpecification:ZoneAirDistribution object for Zone=\"ZONE OFFICE WHOLEBUILDING - MD OFFICE B  - STORY GROUND\".\n   **   ~~~   ** Using default zone air distribution effectiveness of 1.0 for heating and cooling.\n   ** Warning ** GetOAControllerInputs: Controller:MechanicalVentilation=\"CONTROLLER MECHANICAL VENTILATION 5\"\n   **   ~~~   ** Cannot locate a matching DesignSpecification:ZoneAirDistribution object for Zone=\"ZONE OFFICE WHOLEBUILDING - MD OFFICE B END_A - STORY GROUND\".\n   **   ~~~   ** Using default zone air distribution effectiveness of 1.0 for heating and cooling.\n   ** Warning ** GetOAControllerInputs: Controller:MechanicalVentilation=\"CONTROLLER MECHANICAL VENTILATION 6\"\n   **   ~~~   ** Cannot locate a matching DesignSpecification:ZoneAirDistribution object for Zone=\"ZONE OFFICE WHOLEBUILDING - MD OFFICE B END_B - STORY GROUND\".\n   **   ~~~   ** Using default zone air distribution effectiveness of 1.0 for heating and cooling.\n   ** Warning ** GetOAControllerInputs: Controller:MechanicalVentilation=\"CONTROLLER MECHANICAL VENTILATION 7\"\n   **   ~~~   ** Cannot locate a matching DesignSpecification:ZoneAirDistribution object for Zone=\"ZONE OFFICE WHOLEBUILDING - MD OFFICE C  - STORY GROUND\".\n   **   ~~~   ** Using default zone air distribution effectiveness of 1.0 for heating and cooling.\n   ** Warning ** GetOAControllerInputs: Controller:MechanicalVentilation=\"CONTROLLER MECHANICAL VENTILATION 8\"\n   **   ~~~   ** Cannot locate a matching DesignSpecification:ZoneAirDistribution object for Zone=\"ZONE OFFICE WHOLEBUILDING - MD OFFICE C END_A - STORY GROUND\".\n   **   ~~~   ** Using default zone air distribution effectiveness of 1.0 for heating and cooling.\n   ** Warning ** GetOAControllerInputs: Controller:MechanicalVentilation=\"CONTROLLER MECHANICAL VENTILATION 9\"\n   **   ~~~   ** Cannot locate a matching DesignSpecification:ZoneAirDistribution object for Zone=\"ZONE OFFICE WHOLEBUILDING - MD OFFICE C END_B - STORY GROUND\".\n   **   ~~~   ** Using default zone air distribution effectiveness of 1.0 for heating and cooling.\n   ** Warning ** SizePlantLoop: Calculated Plant Sizing Design Volume Flow Rate=[0.00] is too small. Set to 0.0\n   **   ~~~   ** ..occurs for PlantLoop=MAIN SERVICE WATER LOOP\n   ** Warning ** SizePump: Calculated Pump Nominal Volume Flow Rate=[0.00] is too small. Set to 0.0\n   **   ~~~   ** ..occurs for Pump=MAIN SERVICE WATER LOOP WATER MAINS PRESSURE DRIVEN\n   ** Warning ** Check input. Pump nominal power or motor efficiency is set to 0, for pump=MAIN SERVICE WATER LOOP WATER MAINS PRESSURE DRIVEN\n   ** Warning ** Check input. Pump nominal flow rate is set or calculated = 0, for pump=MAIN SERVICE WATER LOOP WATER MAINS PRESSURE DRIVEN\n   ** Warning ** For zone=ZONE OFFICE WHOLEBUILDING - MD OFFICE A  - STORY GROUND return air heat gain from lights will be applied to the zone air.\n   **   ~~~   **   This zone has no return air or is served by an on/off HVAC system.\n   ** Warning ** For zone=ZONE OFFICE WHOLEBUILDING - MD OFFICE A END_A - STORY GROUND return air heat gain from lights will be applied to the zone air.\n   **   ~~~   **   This zone has no return air or is served by an on/off HVAC system.\n   ** Warning ** For zone=ZONE OFFICE WHOLEBUILDING - MD OFFICE A END_B - STORY GROUND return air heat gain from lights will be applied to the zone air.\n   **   ~~~   **   This zone has no return air or is served by an on/off HVAC system.\n   ** Warning ** For zone=ZONE OFFICE WHOLEBUILDING - MD OFFICE B  - STORY GROUND return air heat gain from lights will be applied to the zone air.\n   **   ~~~   **   This zone has no return air or is served by an on/off HVAC system.\n   ** Warning ** For zone=ZONE OFFICE WHOLEBUILDING - MD OFFICE B END_A - STORY GROUND return air heat gain from lights will be applied to the zone air.\n   **   ~~~   **   This zone has no return air or is served by an on/off HVAC system.\n   ** Warning ** For zone=ZONE OFFICE WHOLEBUILDING - MD OFFICE B END_B - STORY GROUND return air heat gain from lights will be applied to the zone air.\n   **   ~~~   **   This zone has no return air or is served by an on/off HVAC system.\n   ** Warning ** For zone=ZONE OFFICE WHOLEBUILDING - MD OFFICE C  - STORY GROUND return air heat gain from lights will be applied to the zone air.\n   **   ~~~   **   This zone has no return air or is served by an on/off HVAC system.\n   ** Warning ** For zone=ZONE OFFICE WHOLEBUILDING - MD OFFICE C END_A - STORY GROUND return air heat gain from lights will be applied to the zone air.\n   **   ~~~   **   This zone has no return air or is served by an on/off HVAC system.\n   ** Warning ** For zone=ZONE OFFICE WHOLEBUILDING - MD OFFICE C END_B - STORY GROUND return air heat gain from lights will be applied to the zone air.\n   **   ~~~   **   This zone has no return air or is served by an on/off HVAC system.\n   ** Warning ** Output:Meter: invalid Key Name=\"DISTRICTCOOLING:FACILITY\" - not found.\n   ** Warning ** Output:Meter: invalid Key Name=\"DISTRICTHEATING:FACILITY\" - not found.\n   ** Warning ** Output:Meter:MeterFileOnly requested for \"Electricity:Facility\" (TimeStep), already on \"Output:Meter\". Will report to both eplusout.eso and eplusout.mtr\n   ************* Testing Individual Branch Integrity\n   ************* All Branches passed integrity testing\n   ************* Testing Individual Supply Air Path Integrity\n   ************* All Supply Air Paths passed integrity testing\n   ************* Testing Individual Return Air Path Integrity\n   ************* All Return Air Paths passed integrity testing\n   ************* No node connection errors were found.\n   ************* Beginning Simulation\n   ** Warning ** CalcOAController: Minimum OA fraction > Mechanical Ventilation Controller request for Controller:OutdoorAir=ZONE OFFICE WHOLEBUILDING - MD OFFICE A  - STORY GROUND PSZ-AC OA SYSTEM CONTROLLER, Min OA fraction is used.\n   **   ~~~   ** This may be overriding desired ventilation controls. Check inputs for Minimum Outdoor Air Flow Rate, Minimum Outdoor Air Schedule Name and Controller:MechanicalVentilation\n   **   ~~~   ** Minimum OA fraction = 0.1464, Mech Vent OA fraction = 3.2962E-002\n   **   ~~~   **  Environment=RUN PERIOD 1, at Simulation time=01/01 00:00 - 00:10\n   ** Warning ** CalcOAController: Minimum OA fraction > Mechanical Ventilation Controller request for Controller:OutdoorAir=ZONE OFFICE WHOLEBUILDING - MD OFFICE A END_A - STORY GROUND PSZ-AC OA SYSTEM CONTROLLER, Min OA fraction is used.\n   **   ~~~   ** This may be overriding desired ventilation controls. Check inputs for Minimum Outdoor Air Flow Rate, Minimum Outdoor Air Schedule Name and Controller:MechanicalVentilation\n   **   ~~~   ** Minimum OA fraction = 8.3865E-002, Mech Vent OA fraction = 2.4544E-002\n   **   ~~~   **  Environment=RUN PERIOD 1, at Simulation time=01/01 00:00 - 00:10\n   ** Warning ** CalcOAController: Minimum OA fraction > Mechanical Ventilation Controller request for Controller:OutdoorAir=ZONE OFFICE WHOLEBUILDING - MD OFFICE A END_B - STORY GROUND PSZ-AC OA SYSTEM CONTROLLER, Min OA fraction is used.\n   **   ~~~   ** This may be overriding desired ventilation controls. Check inputs for Minimum Outdoor Air Flow Rate, Minimum Outdoor Air Schedule Name and Controller:MechanicalVentilation\n   **   ~~~   ** Minimum OA fraction = 8.3900E-002, Mech Vent OA fraction = 2.4434E-002\n   **   ~~~   **  Environment=RUN PERIOD 1, at Simulation time=01/01 00:00 - 00:10\n   ** Warning ** CalcOAController: Minimum OA fraction > Mechanical Ventilation Controller request for Controller:OutdoorAir=ZONE OFFICE WHOLEBUILDING - MD OFFICE B END_A - STORY GROUND PSZ-AC OA SYSTEM CONTROLLER, Min OA fraction is used.\n   **   ~~~   ** This may be overriding desired ventilation controls. Check inputs for Minimum Outdoor Air Flow Rate, Minimum Outdoor Air Schedule Name and Controller:MechanicalVentilation\n   **   ~~~   ** Minimum OA fraction = 0.1544, Mech Vent OA fraction = 3.9908E-002\n   **   ~~~   **  Environment=RUN PERIOD 1, at Simulation time=01/01 00:00 - 00:10\n   ** Warning ** CalcOAController: Minimum OA fraction > Mechanical Ventilation Controller request for Controller:OutdoorAir=ZONE OFFICE WHOLEBUILDING - MD OFFICE B END_B - STORY GROUND PSZ-AC OA SYSTEM CONTROLLER, Min OA fraction is used.\n   **   ~~~   ** This may be overriding desired ventilation controls. Check inputs for Minimum Outdoor Air Flow Rate, Minimum Outdoor Air Schedule Name and Controller:MechanicalVentilation\n   **   ~~~   ** Minimum OA fraction = 0.1498, Mech Vent OA fraction = 3.7236E-002\n   **   ~~~   **  Environment=RUN PERIOD 1, at Simulation time=01/01 00:00 - 00:10\n   ** Warning ** CalcOAController: Minimum OA fraction > Mechanical Ventilation Controller request for Controller:OutdoorAir=ZONE OFFICE WHOLEBUILDING - MD OFFICE C  - STORY GROUND PSZ-AC OA SYSTEM CONTROLLER, Min OA fraction is used.\n   **   ~~~   ** This may be overriding desired ventilation controls. Check inputs for Minimum Outdoor Air Flow Rate, Minimum Outdoor Air Schedule Name and Controller:MechanicalVentilation\n   **   ~~~   ** Minimum OA fraction = 0.1620, Mech Vent OA fraction = 4.3984E-002\n   **   ~~~   **  Environment=RUN PERIOD 1, at Simulation time=01/01 00:00 - 00:10\n   ** Warning ** CalcOAController: Minimum OA fraction > Mechanical Ventilation Controller request for Controller:OutdoorAir=ZONE OFFICE WHOLEBUILDING - MD OFFICE C END_A - STORY GROUND PSZ-AC OA SYSTEM CONTROLLER, Min OA fraction is used.\n   **   ~~~   ** This may be overriding desired ventilation controls. Check inputs for Minimum Outdoor Air Flow Rate, Minimum Outdoor Air Schedule Name and Controller:MechanicalVentilation\n   **   ~~~   ** Minimum OA fraction = 8.3829E-002, Mech Vent OA fraction = 2.5661E-002\n   **   ~~~   **  Environment=RUN PERIOD 1, at Simulation time=01/01 00:00 - 00:10\n   ** Warning ** CalcOAController: Minimum OA fraction > Mechanical Ventilation Controller request for Controller:OutdoorAir=ZONE OFFICE WHOLEBUILDING - MD OFFICE C END_B - STORY GROUND PSZ-AC OA SYSTEM CONTROLLER, Min OA fraction is used.\n   **   ~~~   ** This may be overriding desired ventilation controls. Check inputs for Minimum Outdoor Air Flow Rate, Minimum Outdoor Air Schedule Name and Controller:MechanicalVentilation\n   **   ~~~   ** Minimum OA fraction = 8.3865E-002, Mech Vent OA fraction = 2.5548E-002\n   **   ~~~   **  Environment=RUN PERIOD 1, at Simulation time=01/01 00:00 - 00:10\n   ** Warning ** In Output:Table:Monthly 'BUILDING ENERGY PERFORMANCE - FUELOILNO1' invalid Variable or Meter Name 'HEATING:FUELOILNO1'\n   ** Warning ** In Output:Table:Monthly 'BUILDING ENERGY PERFORMANCE - FUELOILNO1' invalid Variable or Meter Name 'COOLING:FUELOILNO1'\n   ** Warning ** In Output:Table:Monthly 'BUILDING ENERGY PERFORMANCE - FUELOILNO1' invalid Variable or Meter Name 'INTERIOR LIGHTING:FUELOILNO1'\n   ** Warning ** In Output:Table:Monthly 'BUILDING ENERGY PERFORMANCE - FUELOILNO1' invalid Variable or Meter Name 'EXTERIOR LIGHTING:FUELOILNO1'\n   ** Warning ** In Output:Table:Monthly 'BUILDING ENERGY PERFORMANCE - FUELOILNO1' invalid Variable or Meter Name 'INTERIOR EQUIPMENT:FUELOILNO1'\n   ** Warning ** In Output:Table:Monthly 'BUILDING ENERGY PERFORMANCE - FUELOILNO1' invalid Variable or Meter Name 'EXTERIOR EQUIPMENT:FUELOILNO1'\n   ** Warning ** In Output:Table:Monthly 'BUILDING ENERGY PERFORMANCE - FUELOILNO1' invalid Variable or Meter Name 'FANS:FUELOILNO1'\n   ** Warning ** In Output:Table:Monthly 'BUILDING ENERGY PERFORMANCE - FUELOILNO1' invalid Variable or Meter Name 'PUMPS:FUELOILNO1'\n   ** Warning ** In Output:Table:Monthly 'BUILDING ENERGY PERFORMANCE - FUELOILNO1' invalid Variable or Meter Name 'HEAT REJECTION:FUELOILNO1'\n   ** Warning ** In Output:Table:Monthly 'BUILDING ENERGY PERFORMANCE - FUELOILNO1' invalid Variable or Meter Name 'HUMIDIFICATION:FUELOILNO1'\n   ** Warning ** In Output:Table:Monthly 'BUILDING ENERGY PERFORMANCE - FUELOILNO1' invalid Variable or Meter Name 'HEAT RECOVERY:FUELOILNO1'\n   ** Warning ** In Output:Table:Monthly 'BUILDING ENERGY PERFORMANCE - FUELOILNO1' invalid Variable or Meter Name 'WATER SYSTEMS:FUELOILNO1'\n   ** Warning ** In Output:Table:Monthly 'BUILDING ENERGY PERFORMANCE - FUELOILNO1' invalid Variable or Meter Name 'REFRIGERATION:FUELOILNO1'\n   ** Warning ** In Output:Table:Monthly 'BUILDING ENERGY PERFORMANCE - FUELOILNO1' invalid Variable or Meter Name 'GENERATORS:FUELOILNO1'\n   ** Warning ** In Output:Table:Monthly 'BUILDING ENERGY PERFORMANCE - FUELOILNO2' invalid Variable or Meter Name 'HEATING:FUELOILNO2'\n   ** Warning ** In Output:Table:Monthly 'BUILDING ENERGY PERFORMANCE - FUELOILNO2' invalid Variable or Meter Name 'COOLING:FUELOILNO2'\n   ** Warning ** In Output:Table:Monthly 'BUILDING ENERGY PERFORMANCE - FUELOILNO2' invalid Variable or Meter Name 'INTERIOR LIGHTING:FUELOILNO2'\n   ** Warning ** In Output:Table:Monthly 'BUILDING ENERGY PERFORMANCE - FUELOILNO2' invalid Variable or Meter Name 'EXTERIOR LIGHTING:FUELOILNO2'\n   ** Warning ** In Output:Table:Monthly 'BUILDING ENERGY PERFORMANCE - FUELOILNO2' invalid Variable or Meter Name 'INTERIOR EQUIPMENT:FUELOILNO2'\n   ** Warning ** In Output:Table:Monthly 'BUILDING ENERGY PERFORMANCE - FUELOILNO2' invalid Variable or Meter Name 'EXTERIOR EQUIPMENT:FUELOILNO2'\n   ** Warning ** In Output:Table:Monthly 'BUILDING ENERGY PERFORMANCE - FUELOILNO2' invalid Variable or Meter Name 'FANS:FUELOILNO2'\n   ** Warning ** In Output:Table:Monthly 'BUILDING ENERGY PERFORMANCE - FUELOILNO2' invalid Variable or Meter Name 'PUMPS:FUELOILNO2'\n   ** Warning ** In Output:Table:Monthly 'BUILDING ENERGY PERFORMANCE - FUELOILNO2' invalid Variable or Meter Name 'HEAT REJECTION:FUELOILNO2'\n   ** Warning ** In Output:Table:Monthly 'BUILDING ENERGY PERFORMANCE - FUELOILNO2' invalid Variable or Meter Name 'HUMIDIFICATION:FUELOILNO2'\n   ** Warning ** In Output:Table:Monthly 'BUILDING ENERGY PERFORMANCE - FUELOILNO2' invalid Variable or Meter Name 'HEAT RECOVERY:FUELOILNO2'\n   ** Warning ** In Output:Table:Monthly 'BUILDING ENERGY PERFORMANCE - FUELOILNO2' invalid Variable or Meter Name 'WATER SYSTEMS:FUELOILNO2'\n   ** Warning ** In Output:Table:Monthly 'BUILDING ENERGY PERFORMANCE - FUELOILNO2' invalid Variable or Meter Name 'REFRIGERATION:FUELOILNO2'\n   ** Warning ** In Output:Table:Monthly 'BUILDING ENERGY PERFORMANCE - FUELOILNO2' invalid Variable or Meter Name 'GENERATORS:FUELOILNO2'\n   ** Warning ** In Output:Table:Monthly 'BUILDING ENERGY PERFORMANCE - PROPANEGAS' invalid Variable or Meter Name 'HEATING:PROPANEGAS'\n   ** Warning ** In Output:Table:Monthly 'BUILDING ENERGY PERFORMANCE - PROPANEGAS' invalid Variable or Meter Name 'COOLING:PROPANEGAS'\n   ** Warning ** In Output:Table:Monthly 'BUILDING ENERGY PERFORMANCE - PROPANEGAS' invalid Variable or Meter Name 'INTERIOR LIGHTING:PROPANEGAS'\n   ** Warning ** In Output:Table:Monthly 'BUILDING ENERGY PERFORMANCE - PROPANEGAS' invalid Variable or Meter Name 'EXTERIOR LIGHTING:PROPANEGAS'\n   ** Warning ** In Output:Table:Monthly 'BUILDING ENERGY PERFORMANCE - PROPANEGAS' invalid Variable or Meter Name 'INTERIOR EQUIPMENT:PROPANEGAS'\n   ** Warning ** In Output:Table:Monthly 'BUILDING ENERGY PERFORMANCE - PROPANEGAS' invalid Variable or Meter Name 'EXTERIOR EQUIPMENT:PROPANEGAS'\n   ** Warning ** In Output:Table:Monthly 'BUILDING ENERGY PERFORMANCE - PROPANEGAS' invalid Variable or Meter Name 'FANS:PROPANEGAS'\n   ** Warning ** In Output:Table:Monthly 'BUILDING ENERGY PERFORMANCE - PROPANEGAS' invalid Variable or Meter Name 'PUMPS:PROPANEGAS'\n   ** Warning ** In Output:Table:Monthly 'BUILDING ENERGY PERFORMANCE - PROPANEGAS' invalid Variable or Meter Name 'HEAT REJECTION:PROPANEGAS'\n   ** Warning ** In Output:Table:Monthly 'BUILDING ENERGY PERFORMANCE - PROPANEGAS' invalid Variable or Meter Name 'HUMIDIFICATION:PROPANEGAS'\n   ** Warning ** In Output:Table:Monthly 'BUILDING ENERGY PERFORMANCE - PROPANEGAS' invalid Variable or Meter Name 'HEAT RECOVERY:PROPANEGAS'\n   ** Warning ** In Output:Table:Monthly 'BUILDING ENERGY PERFORMANCE - PROPANEGAS' invalid Variable or Meter Name 'WATER SYSTEMS:PROPANEGAS'\n   ** Warning ** In Output:Table:Monthly 'BUILDING ENERGY PERFORMANCE - PROPANEGAS' invalid Variable or Meter Name 'REFRIGERATION:PROPANEGAS'\n   ** Warning ** In Output:Table:Monthly 'BUILDING ENERGY PERFORMANCE - PROPANEGAS' invalid Variable or Meter Name 'GENERATORS:PROPANEGAS'\n   ** Warning ** In Output:Table:Monthly 'BUILDING ENERGY PERFORMANCE - COAL' invalid Variable or Meter Name 'HEATING:COAL'\n   ** Warning ** In Output:Table:Monthly 'BUILDING ENERGY PERFORMANCE - COAL' invalid Variable or Meter Name 'COOLING:COAL'\n   ** Warning ** In Output:Table:Monthly 'BUILDING ENERGY PERFORMANCE - COAL' invalid Variable or Meter Name 'INTERIOR LIGHTING:COAL'\n   ** Warning ** In Output:Table:Monthly 'BUILDING ENERGY PERFORMANCE - COAL' invalid Variable or Meter Name 'EXTERIOR LIGHTING:COAL'\n   ** Warning ** In Output:Table:Monthly 'BUILDING ENERGY PERFORMANCE - COAL' invalid Variable or Meter Name 'INTERIOR EQUIPMENT:COAL'\n   ** Warning ** In Output:Table:Monthly 'BUILDING ENERGY PERFORMANCE - COAL' invalid Variable or Meter Name 'EXTERIOR EQUIPMENT:COAL'\n   ** Warning ** In Output:Table:Monthly 'BUILDING ENERGY PERFORMANCE - COAL' invalid Variable or Meter Name 'FANS:COAL'\n   ** Warning ** In Output:Table:Monthly 'BUILDING ENERGY PERFORMANCE - COAL' invalid Variable or Meter Name 'PUMPS:COAL'\n   ** Warning ** In Output:Table:Monthly 'BUILDING ENERGY PERFORMANCE - COAL' invalid Variable or Meter Name 'HEAT REJECTION:COAL'\n   ** Warning ** In Output:Table:Monthly 'BUILDING ENERGY PERFORMANCE - COAL' invalid Variable or Meter Name 'HUMIDIFICATION:COAL'\n   ** Warning ** In Output:Table:Monthly 'BUILDING ENERGY PERFORMANCE - COAL' invalid Variable or Meter Name 'HEAT RECOVERY:COAL'\n   ** Warning ** In Output:Table:Monthly 'BUILDING ENERGY PERFORMANCE - COAL' invalid Variable or Meter Name 'WATER SYSTEMS:COAL'\n   ** Warning ** In Output:Table:Monthly 'BUILDING ENERGY PERFORMANCE - COAL' invalid Variable or Meter Name 'REFRIGERATION:COAL'\n   ** Warning ** In Output:Table:Monthly 'BUILDING ENERGY PERFORMANCE - COAL' invalid Variable or Meter Name 'GENERATORS:COAL'\n   ** Warning ** In Output:Table:Monthly 'BUILDING ENERGY PERFORMANCE - DIESEL' invalid Variable or Meter Name 'HEATING:DIESEL'\n   ** Warning ** In Output:Table:Monthly 'BUILDING ENERGY PERFORMANCE - DIESEL' invalid Variable or Meter Name 'COOLING:DIESEL'\n   ** Warning ** In Output:Table:Monthly 'BUILDING ENERGY PERFORMANCE - DIESEL' invalid Variable or Meter Name 'INTERIOR LIGHTING:DIESEL'\n   ** Warning ** In Output:Table:Monthly 'BUILDING ENERGY PERFORMANCE - DIESEL' invalid Variable or Meter Name 'EXTERIOR LIGHTING:DIESEL'\n   ** Warning ** In Output:Table:Monthly 'BUILDING ENERGY PERFORMANCE - DIESEL' invalid Variable or Meter Name 'INTERIOR EQUIPMENT:DIESEL'\n   ** Warning ** In Output:Table:Monthly 'BUILDING ENERGY PERFORMANCE - DIESEL' invalid Variable or Meter Name 'EXTERIOR EQUIPMENT:DIESEL'\n   ** Warning ** In Output:Table:Monthly 'BUILDING ENERGY PERFORMANCE - DIESEL' invalid Variable or Meter Name 'FANS:DIESEL'\n   ** Warning ** In Output:Table:Monthly 'BUILDING ENERGY PERFORMANCE - DIESEL' invalid Variable or Meter Name 'PUMPS:DIESEL'\n   ** Warning ** In Output:Table:Monthly 'BUILDING ENERGY PERFORMANCE - DIESEL' invalid Variable or Meter Name 'HEAT REJECTION:DIESEL'\n   ** Warning ** In Output:Table:Monthly 'BUILDING ENERGY PERFORMANCE - DIESEL' invalid Variable or Meter Name 'HUMIDIFICATION:DIESEL'\n   ** Warning ** In Output:Table:Monthly 'BUILDING ENERGY PERFORMANCE - DIESEL' invalid Variable or Meter Name 'HEAT RECOVERY:DIESEL'\n   ** Warning ** In Output:Table:Monthly 'BUILDING ENERGY PERFORMANCE - DIESEL' invalid Variable or Meter Name 'WATER SYSTEMS:DIESEL'\n   ** Warning ** In Output:Table:Monthly 'BUILDING ENERGY PERFORMANCE - DIESEL' invalid Variable or Meter Name 'REFRIGERATION:DIESEL'\n   ** Warning ** In Output:Table:Monthly 'BUILDING ENERGY PERFORMANCE - DIESEL' invalid Variable or Meter Name 'GENERATORS:DIESEL'\n   ** Warning ** In Output:Table:Monthly 'BUILDING ENERGY PERFORMANCE - GASOLINE' invalid Variable or Meter Name 'HEATING:GASOLINE'\n   ** Warning ** In Output:Table:Monthly 'BUILDING ENERGY PERFORMANCE - GASOLINE' invalid Variable or Meter Name 'COOLING:GASOLINE'\n   ** Warning ** In Output:Table:Monthly 'BUILDING ENERGY PERFORMANCE - GASOLINE' invalid Variable or Meter Name 'INTERIOR LIGHTING:GASOLINE'\n   ** Warning ** In Output:Table:Monthly 'BUILDING ENERGY PERFORMANCE - GASOLINE' invalid Variable or Meter Name 'EXTERIOR LIGHTING:GASOLINE'\n   ** Warning ** In Output:Table:Monthly 'BUILDING ENERGY PERFORMANCE - GASOLINE' invalid Variable or Meter Name 'INTERIOR EQUIPMENT:GASOLINE'\n   ** Warning ** In Output:Table:Monthly 'BUILDING ENERGY PERFORMANCE - GASOLINE' invalid Variable or Meter Name 'EXTERIOR EQUIPMENT:GASOLINE'\n   ** Warning ** In Output:Table:Monthly 'BUILDING ENERGY PERFORMANCE - GASOLINE' invalid Variable or Meter Name 'FANS:GASOLINE'\n   ** Warning ** In Output:Table:Monthly 'BUILDING ENERGY PERFORMANCE - GASOLINE' invalid Variable or Meter Name 'PUMPS:GASOLINE'\n   ** Warning ** In Output:Table:Monthly 'BUILDING ENERGY PERFORMANCE - GASOLINE' invalid Variable or Meter Name 'HEAT REJECTION:GASOLINE'\n   ** Warning ** In Output:Table:Monthly 'BUILDING ENERGY PERFORMANCE - GASOLINE' invalid Variable or Meter Name 'HUMIDIFICATION:GASOLINE'\n   ** Warning ** In Output:Table:Monthly 'BUILDING ENERGY PERFORMANCE - GASOLINE' invalid Variable or Meter Name 'HEAT RECOVERY:GASOLINE'\n   ** Warning ** In Output:Table:Monthly 'BUILDING ENERGY PERFORMANCE - GASOLINE' invalid Variable or Meter Name 'WATER SYSTEMS:GASOLINE'\n   ** Warning ** In Output:Table:Monthly 'BUILDING ENERGY PERFORMANCE - GASOLINE' invalid Variable or Meter Name 'REFRIGERATION:GASOLINE'\n   ** Warning ** In Output:Table:Monthly 'BUILDING ENERGY PERFORMANCE - GASOLINE' invalid Variable or Meter Name 'GENERATORS:GASOLINE'\n   ** Warning ** In Output:Table:Monthly 'BUILDING ENERGY PERFORMANCE - OTHERFUEL1' invalid Variable or Meter Name 'HEATING:OTHERFUEL1'\n   ** Warning ** In Output:Table:Monthly 'BUILDING ENERGY PERFORMANCE - OTHERFUEL1' invalid Variable or Meter Name 'COOLING:OTHERFUEL1'\n   ** Warning ** In Output:Table:Monthly 'BUILDING ENERGY PERFORMANCE - OTHERFUEL1' invalid Variable or Meter Name 'INTERIOR LIGHTING:OTHERFUEL1'\n   ** Warning ** In Output:Table:Monthly 'BUILDING ENERGY PERFORMANCE - OTHERFUEL1' invalid Variable or Meter Name 'EXTERIOR LIGHTING:OTHERFUEL1'\n   ** Warning ** In Output:Table:Monthly 'BUILDING ENERGY PERFORMANCE - OTHERFUEL1' invalid Variable or Meter Name 'INTERIOR EQUIPMENT:OTHERFUEL1'\n   ** Warning ** In Output:Table:Monthly 'BUILDING ENERGY PERFORMANCE - OTHERFUEL1' invalid Variable or Meter Name 'EXTERIOR EQUIPMENT:OTHERFUEL1'\n   ** Warning ** In Output:Table:Monthly 'BUILDING ENERGY PERFORMANCE - OTHERFUEL1' invalid Variable or Meter Name 'FANS:OTHERFUEL1'\n   ** Warning ** In Output:Table:Monthly 'BUILDING ENERGY PERFORMANCE - OTHERFUEL1' invalid Variable or Meter Name 'PUMPS:OTHERFUEL1'\n   ** Warning ** In Output:Table:Monthly 'BUILDING ENERGY PERFORMANCE - OTHERFUEL1' invalid Variable or Meter Name 'HEAT REJECTION:OTHERFUEL1'\n   ** Warning ** In Output:Table:Monthly 'BUILDING ENERGY PERFORMANCE - OTHERFUEL1' invalid Variable or Meter Name 'HUMIDIFICATION:OTHERFUEL1'\n   ** Warning ** In Output:Table:Monthly 'BUILDING ENERGY PERFORMANCE - OTHERFUEL1' invalid Variable or Meter Name 'HEAT RECOVERY:OTHERFUEL1'\n   ** Warning ** In Output:Table:Monthly 'BUILDING ENERGY PERFORMANCE - OTHERFUEL1' invalid Variable or Meter Name 'WATER SYSTEMS:OTHERFUEL1'\n   ** Warning ** In Output:Table:Monthly 'BUILDING ENERGY PERFORMANCE - OTHERFUEL1' invalid Variable or Meter Name 'REFRIGERATION:OTHERFUEL1'\n   ** Warning ** In Output:Table:Monthly 'BUILDING ENERGY PERFORMANCE - OTHERFUEL1' invalid Variable or Meter Name 'GENERATORS:OTHERFUEL1'\n   ** Warning ** In Output:Table:Monthly 'BUILDING ENERGY PERFORMANCE - OTHERFUEL2' invalid Variable or Meter Name 'HEATING:OTHERFUEL2'\n   ** Warning ** In Output:Table:Monthly 'BUILDING ENERGY PERFORMANCE - OTHERFUEL2' invalid Variable or Meter Name 'COOLING:OTHERFUEL2'\n   ** Warning ** In Output:Table:Monthly 'BUILDING ENERGY PERFORMANCE - OTHERFUEL2' invalid Variable or Meter Name 'INTERIOR LIGHTING:OTHERFUEL2'\n   ** Warning ** In Output:Table:Monthly 'BUILDING ENERGY PERFORMANCE - OTHERFUEL2' invalid Variable or Meter Name 'EXTERIOR LIGHTING:OTHERFUEL2'\n   ** Warning ** In Output:Table:Monthly 'BUILDING ENERGY PERFORMANCE - OTHERFUEL2' invalid Variable or Meter Name 'INTERIOR EQUIPMENT:OTHERFUEL2'\n   ** Warning ** In Output:Table:Monthly 'BUILDING ENERGY PERFORMANCE - OTHERFUEL2' invalid Variable or Meter Name 'EXTERIOR EQUIPMENT:OTHERFUEL2'\n   ** Warning ** In Output:Table:Monthly 'BUILDING ENERGY PERFORMANCE - OTHERFUEL2' invalid Variable or Meter Name 'FANS:OTHERFUEL2'\n   ** Warning ** In Output:Table:Monthly 'BUILDING ENERGY PERFORMANCE - OTHERFUEL2' invalid Variable or Meter Name 'PUMPS:OTHERFUEL2'\n   ** Warning ** In Output:Table:Monthly 'BUILDING ENERGY PERFORMANCE - OTHERFUEL2' invalid Variable or Meter Name 'HEAT REJECTION:OTHERFUEL2'\n   ** Warning ** In Output:Table:Monthly 'BUILDING ENERGY PERFORMANCE - OTHERFUEL2' invalid Variable or Meter Name 'HUMIDIFICATION:OTHERFUEL2'\n   ** Warning ** In Output:Table:Monthly 'BUILDING ENERGY PERFORMANCE - OTHERFUEL2' invalid Variable or Meter Name 'HEAT RECOVERY:OTHERFUEL2'\n   ** Warning ** In Output:Table:Monthly 'BUILDING ENERGY PERFORMANCE - OTHERFUEL2' invalid Variable or Meter Name 'WATER SYSTEMS:OTHERFUEL2'\n   ** Warning ** In Output:Table:Monthly 'BUILDING ENERGY PERFORMANCE - OTHERFUEL2' invalid Variable or Meter Name 'REFRIGERATION:OTHERFUEL2'\n   ** Warning ** In Output:Table:Monthly 'BUILDING ENERGY PERFORMANCE - OTHERFUEL2' invalid Variable or Meter Name 'GENERATORS:OTHERFUEL2'\n   ** Warning ** In Output:Table:Monthly 'BUILDING ENERGY PERFORMANCE - ELECTRICITY' invalid Variable or Meter Name 'EXTERIOREQUIPMENT:ELECTRICITY'\n   ** Warning ** In Output:Table:Monthly 'BUILDING ENERGY PERFORMANCE - ELECTRICITY' invalid Variable or Meter Name 'HEATREJECTION:ELECTRICITY'\n   ** Warning ** In Output:Table:Monthly 'BUILDING ENERGY PERFORMANCE - ELECTRICITY' invalid Variable or Meter Name 'HUMIDIFIER:ELECTRICITY'\n   ** Warning ** In Output:Table:Monthly 'BUILDING ENERGY PERFORMANCE - ELECTRICITY' invalid Variable or Meter Name 'HEATRECOVERY:ELECTRICITY'\n   ** Warning ** In Output:Table:Monthly 'BUILDING ENERGY PERFORMANCE - ELECTRICITY' invalid Variable or Meter Name 'COGENERATION:ELECTRICITY'\n   ** Warning ** In Output:Table:Monthly 'BUILDING ENERGY PERFORMANCE - ELECTRICITY' invalid Variable or Meter Name 'REFRIGERATION:ELECTRICITY'\n   ** Warning ** In Output:Table:Monthly 'BUILDING ENERGY PERFORMANCE - NATURAL GAS' invalid Variable or Meter Name 'INTERIOREQUIPMENT:NATURALGAS'\n   ** Warning ** In Output:Table:Monthly 'BUILDING ENERGY PERFORMANCE - NATURAL GAS' invalid Variable or Meter Name 'EXTERIOREQUIPMENT:NATURALGAS'\n   ** Warning ** In Output:Table:Monthly 'BUILDING ENERGY PERFORMANCE - NATURAL GAS' invalid Variable or Meter Name 'COOLING:NATURALGAS'\n   ** Warning ** In Output:Table:Monthly 'BUILDING ENERGY PERFORMANCE - NATURAL GAS' invalid Variable or Meter Name 'COGENERATION:NATURALGAS'\n   ** Warning ** In Output:Table:Monthly 'BUILDING ENERGY PERFORMANCE - DISTRICT HEATING' invalid Variable or Meter Name 'INTERIORLIGHTS:DISTRICTHEATING'\n   ** Warning ** In Output:Table:Monthly 'BUILDING ENERGY PERFORMANCE - DISTRICT HEATING' invalid Variable or Meter Name 'EXTERIORLIGHTS:DISTRICTHEATING'\n   ** Warning ** In Output:Table:Monthly 'BUILDING ENERGY PERFORMANCE - DISTRICT HEATING' invalid Variable or Meter Name 'INTERIOREQUIPMENT:DISTRICTHEATING'\n   ** Warning ** In Output:Table:Monthly 'BUILDING ENERGY PERFORMANCE - DISTRICT HEATING' invalid Variable or Meter Name 'EXTERIOREQUIPMENT:DISTRICTHEATING'\n   ** Warning ** In Output:Table:Monthly 'BUILDING ENERGY PERFORMANCE - DISTRICT HEATING' invalid Variable or Meter Name 'FANS:DISTRICTHEATING'\n   ** Warning ** In Output:Table:Monthly 'BUILDING ENERGY PERFORMANCE - DISTRICT HEATING' invalid Variable or Meter Name 'PUMPS:DISTRICTHEATING'\n   ** Warning ** In Output:Table:Monthly 'BUILDING ENERGY PERFORMANCE - DISTRICT HEATING' invalid Variable or Meter Name 'HEATING:DISTRICTHEATING'\n   ** Warning ** In Output:Table:Monthly 'BUILDING ENERGY PERFORMANCE - DISTRICT HEATING' invalid Variable or Meter Name 'COOLING:DISTRICTHEATING'\n   ** Warning ** In Output:Table:Monthly 'BUILDING ENERGY PERFORMANCE - DISTRICT HEATING' invalid Variable or Meter Name 'HEATREJECTION:DISTRICTHEATING'\n   ** Warning ** In Output:Table:Monthly 'BUILDING ENERGY PERFORMANCE - DISTRICT HEATING' invalid Variable or Meter Name 'HUMIDIFIER:DISTRICTHEATING'\n   ** Warning ** In Output:Table:Monthly 'BUILDING ENERGY PERFORMANCE - DISTRICT HEATING' invalid Variable or Meter Name 'HEATRECOVERY:DISTRICTHEATING'\n   ** Warning ** In Output:Table:Monthly 'BUILDING ENERGY PERFORMANCE - DISTRICT HEATING' invalid Variable or Meter Name 'WATERSYSTEMS:DISTRICTHEATING'\n   ** Warning ** In Output:Table:Monthly 'BUILDING ENERGY PERFORMANCE - DISTRICT HEATING' invalid Variable or Meter Name 'COGENERATION:DISTRICTHEATING'\n   ** Warning ** In Output:Table:Monthly 'BUILDING ENERGY PERFORMANCE - DISTRICT COOLING' invalid Variable or Meter Name 'INTERIORLIGHTS:DISTRICTCOOLING'\n   ** Warning ** In Output:Table:Monthly 'BUILDING ENERGY PERFORMANCE - DISTRICT COOLING' invalid Variable or Meter Name 'EXTERIORLIGHTS:DISTRICTCOOLING'\n   ** Warning ** In Output:Table:Monthly 'BUILDING ENERGY PERFORMANCE - DISTRICT COOLING' invalid Variable or Meter Name 'INTERIOREQUIPMENT:DISTRICTCOOLING'\n   ** Warning ** In Output:Table:Monthly 'BUILDING ENERGY PERFORMANCE - DISTRICT COOLING' invalid Variable or Meter Name 'EXTERIOREQUIPMENT:DISTRICTCOOLING'\n   ** Warning ** In Output:Table:Monthly 'BUILDING ENERGY PERFORMANCE - DISTRICT COOLING' invalid Variable or Meter Name 'FANS:DISTRICTCOOLING'\n   ** Warning ** In Output:Table:Monthly 'BUILDING ENERGY PERFORMANCE - DISTRICT COOLING' invalid Variable or Meter Name 'PUMPS:DISTRICTCOOLING'\n   ** Warning ** In Output:Table:Monthly 'BUILDING ENERGY PERFORMANCE - DISTRICT COOLING' invalid Variable or Meter Name 'HEATING:DISTRICTCOOLING'\n   ** Warning ** In Output:Table:Monthly 'BUILDING ENERGY PERFORMANCE - DISTRICT COOLING' invalid Variable or Meter Name 'COOLING:DISTRICTCOOLING'\n   ** Warning ** In Output:Table:Monthly 'BUILDING ENERGY PERFORMANCE - DISTRICT COOLING' invalid Variable or Meter Name 'HEATREJECTION:DISTRICTCOOLING'\n   ** Warning ** In Output:Table:Monthly 'BUILDING ENERGY PERFORMANCE - DISTRICT COOLING' invalid Variable or Meter Name 'HUMIDIFIER:DISTRICTCOOLING'\n   ** Warning ** In Output:Table:Monthly 'BUILDING ENERGY PERFORMANCE - DISTRICT COOLING' invalid Variable or Meter Name 'HEATRECOVERY:DISTRICTCOOLING'\n   ** Warning ** In Output:Table:Monthly 'BUILDING ENERGY PERFORMANCE - DISTRICT COOLING' invalid Variable or Meter Name 'WATERSYSTEMS:DISTRICTCOOLING'\n   ** Warning ** In Output:Table:Monthly 'BUILDING ENERGY PERFORMANCE - DISTRICT COOLING' invalid Variable or Meter Name 'COGENERATION:DISTRICTCOOLING'\n   ** Warning ** In Output:Table:Monthly 'BUILDING ENERGY PERFORMANCE - ELECTRICITY PEAK DEMAND' invalid Variable or Meter Name 'EXTERIOREQUIPMENT:ELECTRICITY'\n   ** Warning ** In Output:Table:Monthly 'BUILDING ENERGY PERFORMANCE - ELECTRICITY PEAK DEMAND' invalid Variable or Meter Name 'HEATREJECTION:ELECTRICITY'\n   ** Warning ** In Output:Table:Monthly 'BUILDING ENERGY PERFORMANCE - ELECTRICITY PEAK DEMAND' invalid Variable or Meter Name 'HUMIDIFIER:ELECTRICITY'\n   ** Warning ** In Output:Table:Monthly 'BUILDING ENERGY PERFORMANCE - ELECTRICITY PEAK DEMAND' invalid Variable or Meter Name 'HEATRECOVERY:ELECTRICITY'\n   ** Warning ** In Output:Table:Monthly 'BUILDING ENERGY PERFORMANCE - ELECTRICITY PEAK DEMAND' invalid Variable or Meter Name 'COGENERATION:ELECTRICITY'\n   ** Warning ** In Output:Table:Monthly 'BUILDING ENERGY PERFORMANCE - NATURAL GAS PEAK DEMAND' invalid Variable or Meter Name 'INTERIOREQUIPMENT:NATURALGAS'\n   ** Warning ** In Output:Table:Monthly 'BUILDING ENERGY PERFORMANCE - NATURAL GAS PEAK DEMAND' invalid Variable or Meter Name 'EXTERIOREQUIPMENT:NATURALGAS'\n   ** Warning ** In Output:Table:Monthly 'BUILDING ENERGY PERFORMANCE - NATURAL GAS PEAK DEMAND' invalid Variable or Meter Name 'COOLING:NATURALGAS'\n   ** Warning ** In Output:Table:Monthly 'BUILDING ENERGY PERFORMANCE - NATURAL GAS PEAK DEMAND' invalid Variable or Meter Name 'COGENERATION:NATURALGAS'\n   ** Warning ** In Output:Table:Monthly 'BUILDING ENERGY PERFORMANCE - DISTRICT HEATING PEAK DEMAND' invalid Variable or Meter Name 'DISTRICTHEATING:FACILITY'\n   ** Warning ** In Output:Table:Monthly 'BUILDING ENERGY PERFORMANCE - DISTRICT HEATING PEAK DEMAND' invalid Variable or Meter Name 'INTERIORLIGHTS:DISTRICTHEATING'\n   ** Warning ** In Output:Table:Monthly 'BUILDING ENERGY PERFORMANCE - DISTRICT HEATING PEAK DEMAND' invalid Variable or Meter Name 'EXTERIORLIGHTS:DISTRICTHEATING'\n   ** Warning ** In Output:Table:Monthly 'BUILDING ENERGY PERFORMANCE - DISTRICT HEATING PEAK DEMAND' invalid Variable or Meter Name 'INTERIOREQUIPMENT:DISTRICTHEATING'\n   ** Warning ** In Output:Table:Monthly 'BUILDING ENERGY PERFORMANCE - DISTRICT HEATING PEAK DEMAND' invalid Variable or Meter Name 'EXTERIOREQUIPMENT:DISTRICTHEATING'\n   ** Warning ** In Output:Table:Monthly 'BUILDING ENERGY PERFORMANCE - DISTRICT HEATING PEAK DEMAND' invalid Variable or Meter Name 'FANS:DISTRICTHEATING'\n   ** Warning ** In Output:Table:Monthly 'BUILDING ENERGY PERFORMANCE - DISTRICT HEATING PEAK DEMAND' invalid Variable or Meter Name 'PUMPS:DISTRICTHEATING'\n   ** Warning ** In Output:Table:Monthly 'BUILDING ENERGY PERFORMANCE - DISTRICT HEATING PEAK DEMAND' invalid Variable or Meter Name 'HEATING:DISTRICTHEATING'\n   ** Warning ** In Output:Table:Monthly 'BUILDING ENERGY PERFORMANCE - DISTRICT HEATING PEAK DEMAND' invalid Variable or Meter Name 'COOLING:DISTRICTHEATING'\n   ** Warning ** In Output:Table:Monthly 'BUILDING ENERGY PERFORMANCE - DISTRICT HEATING PEAK DEMAND' invalid Variable or Meter Name 'HEATREJECTION:DISTRICTHEATING'\n   ** Warning ** In Output:Table:Monthly 'BUILDING ENERGY PERFORMANCE - DISTRICT HEATING PEAK DEMAND' invalid Variable or Meter Name 'HUMIDIFIER:DISTRICTHEATING'\n   ** Warning ** In Output:Table:Monthly 'BUILDING ENERGY PERFORMANCE - DISTRICT HEATING PEAK DEMAND' invalid Variable or Meter Name 'HEATRECOVERY:DISTRICTHEATING'\n   ** Warning ** In Output:Table:Monthly 'BUILDING ENERGY PERFORMANCE - DISTRICT HEATING PEAK DEMAND' invalid Variable or Meter Name 'WATERSYSTEMS:DISTRICTHEATING'\n   ** Warning ** In Output:Table:Monthly 'BUILDING ENERGY PERFORMANCE - DISTRICT HEATING PEAK DEMAND' invalid Variable or Meter Name 'COGENERATION:DISTRICTHEATING'\n   ** Warning ** In Output:Table:Monthly 'BUILDING ENERGY PERFORMANCE - DISTRICT COOLING PEAK DEMAND' invalid Variable or Meter Name 'DISTRICTCOOLING:FACILITY'\n   ** Warning ** In Output:Table:Monthly 'BUILDING ENERGY PERFORMANCE - DISTRICT COOLING PEAK DEMAND' invalid Variable or Meter Name 'INTERIORLIGHTS:DISTRICTCOOLING'\n   ** Warning ** In Output:Table:Monthly 'BUILDING ENERGY PERFORMANCE - DISTRICT COOLING PEAK DEMAND' invalid Variable or Meter Name 'EXTERIORLIGHTS:DISTRICTCOOLING'\n   ** Warning ** In Output:Table:Monthly 'BUILDING ENERGY PERFORMANCE - DISTRICT COOLING PEAK DEMAND' invalid Variable or Meter Name 'INTERIOREQUIPMENT:DISTRICTCOOLING'\n   ** Warning ** In Output:Table:Monthly 'BUILDING ENERGY PERFORMANCE - DISTRICT COOLING PEAK DEMAND' invalid Variable or Meter Name 'EXTERIOREQUIPMENT:DISTRICTCOOLING'\n   ** Warning ** In Output:Table:Monthly 'BUILDING ENERGY PERFORMANCE - DISTRICT COOLING PEAK DEMAND' invalid Variable or Meter Name 'FANS:DISTRICTCOOLING'\n   ** Warning ** In Output:Table:Monthly 'BUILDING ENERGY PERFORMANCE - DISTRICT COOLING PEAK DEMAND' invalid Variable or Meter Name 'PUMPS:DISTRICTCOOLING'\n   ** Warning ** In Output:Table:Monthly 'BUILDING ENERGY PERFORMANCE - DISTRICT COOLING PEAK DEMAND' invalid Variable or Meter Name 'HEATING:DISTRICTCOOLING'\n   ** Warning ** In Output:Table:Monthly 'BUILDING ENERGY PERFORMANCE - DISTRICT COOLING PEAK DEMAND' invalid Variable or Meter Name 'COOLING:DISTRICTCOOLING'\n   ** Warning ** In Output:Table:Monthly 'BUILDING ENERGY PERFORMANCE - DISTRICT COOLING PEAK DEMAND' invalid Variable or Meter Name 'HEATREJECTION:DISTRICTCOOLING'\n   ** Warning ** In Output:Table:Monthly 'BUILDING ENERGY PERFORMANCE - DISTRICT COOLING PEAK DEMAND' invalid Variable or Meter Name 'HUMIDIFIER:DISTRICTCOOLING'\n   ** Warning ** In Output:Table:Monthly 'BUILDING ENERGY PERFORMANCE - DISTRICT COOLING PEAK DEMAND' invalid Variable or Meter Name 'HEATRECOVERY:DISTRICTCOOLING'\n   ** Warning ** In Output:Table:Monthly 'BUILDING ENERGY PERFORMANCE - DISTRICT COOLING PEAK DEMAND' invalid Variable or Meter Name 'WATERSYSTEMS:DISTRICTCOOLING'\n   ** Warning ** In Output:Table:Monthly 'BUILDING ENERGY PERFORMANCE - DISTRICT COOLING PEAK DEMAND' invalid Variable or Meter Name 'COGENERATION:DISTRICTCOOLING'\n   ** Warning ** Processing Monthly Tabular Reports: Variable names not valid for this simulation\n   **   ~~~   ** ...use Output:Diagnostics,DisplayExtraWarnings; to show more details on individual variables.\n   ** Warning ** CalcEquipmentFlowRates: \"OFFICE WHOLEBUILDING - MD OFFICE - DOE REF 1980-2004 SERVICE WATER USE 0.13GPM AT 140F\" - Target water temperature is greater than the hot water temperature by (40.40 C)\n   **   ~~~   **  Environment=RUN PERIOD 1, at Simulation time=01/01 04:00 - 04:10\n   **   ~~~   ** ...target water temperature     = 60.00 C\n   **   ~~~   ** ...hot water temperature        = 19.60 C\n   **   ~~~   ** ...Target water temperature should be less than or equal to the hot water temperature. Verify temperature setpoints and schedules.\n   ** Warning ** CalcOAController: Minimum OA fraction > Mechanical Ventilation Controller request for Controller:OutdoorAir=ZONE OFFICE WHOLEBUILDING - MD OFFICE B  - STORY GROUND PSZ-AC OA SYSTEM CONTROLLER, Min OA fraction is used.\n   **   ~~~   ** This may be overriding desired ventilation controls. Check inputs for Minimum Outdoor Air Flow Rate, Minimum Outdoor Air Schedule Name and Controller:MechanicalVentilation\n   **   ~~~   ** Minimum OA fraction = 0.1718, Mech Vent OA fraction = 2.7675E-002\n   **   ~~~   **  Environment=RUN PERIOD 1, at Simulation time=01/07 07:10 - 07:20\n   ** Warning ** The resource referenced by LifeCycleCost:UsePriceEscalation= \"U.S. AVG  COMMERCIAL-ELECTRICITY\" has no energy cost. \n   **   ~~~   ** ... It is likely that the wrong resource is used. The resource should match the meter used in Utility:Tariff.\n   ** Warning ** The resource referenced by LifeCycleCost:UsePriceEscalation= \"U.S. AVG  COMMERCIAL-DISTILLATE OIL\" has no energy cost. \n   **   ~~~   ** ... It is likely that the wrong resource is used. The resource should match the meter used in Utility:Tariff.\n   ** Warning ** The resource referenced by LifeCycleCost:UsePriceEscalation= \"U.S. AVG  COMMERCIAL-RESIDUAL OIL\" has no energy cost. \n   **   ~~~   ** ... It is likely that the wrong resource is used. The resource should match the meter used in Utility:Tariff.\n   ** Warning ** The resource referenced by LifeCycleCost:UsePriceEscalation= \"U.S. AVG  COMMERCIAL-NATURAL GAS\" has no energy cost. \n   **   ~~~   ** ... It is likely that the wrong resource is used. The resource should match the meter used in Utility:Tariff.\n   ** Warning ** The resource referenced by LifeCycleCost:UsePriceEscalation= \"U.S. AVG  COMMERCIAL-COAL\" has no energy cost. \n   **   ~~~   ** ... It is likely that the wrong resource is used. The resource should match the meter used in Utility:Tariff.\n   ************* Simulation Error Summary *************\n   ************* There are 11 unused schedules in input.\n   ************* There are 11 unused week schedules in input.\n   ************* There are 40 unused day schedules in input.\n   ************* Use Output:Diagnostics,DisplayUnusedSchedules; to see them.\n   *************\n   ************* ===== Recurring Error Summary =====\n   ************* The following recurring error messages occurred.\n   *************\n   *************  ** Warning ** Controller:OutdoorAir=\"ZONE OFFICE WHOLEBUILDING - MD OFFICE A  - STORY GROUND PSZ-AC OA SYSTEM CONTROLLER\": Min OA fraction > Mechanical ventilation OA fraction, continues...\n   *************  **   ~~~   **   This error occurred 90449 total times;\n   *************  **   ~~~   **   during Warmup 0 times;\n   *************  **   ~~~   **   during Sizing 0 times.\n   *************  **   ~~~   **   Max=0.146391  Min=0.146391\n   *************\n   *************  ** Warning ** Controller:OutdoorAir=\"ZONE OFFICE WHOLEBUILDING - MD OFFICE A END_A - STORY GROUND PSZ-AC OA SYSTEM CONTROLLER\": Min OA fraction > Mechanical ventilation OA fraction, continues...\n   *************  **   ~~~   **   This error occurred 129659 total times;\n   *************  **   ~~~   **   during Warmup 0 times;\n   *************  **   ~~~   **   during Sizing 0 times.\n   *************  **   ~~~   **   Max=0.083865  Min=0.083865\n   *************\n   *************  ** Warning ** Controller:OutdoorAir=\"ZONE OFFICE WHOLEBUILDING - MD OFFICE A END_B - STORY GROUND PSZ-AC OA SYSTEM CONTROLLER\": Min OA fraction > Mechanical ventilation OA fraction, continues...\n   *************  **   ~~~   **   This error occurred 128775 total times;\n   *************  **   ~~~   **   during Warmup 0 times;\n   *************  **   ~~~   **   during Sizing 0 times.\n   *************  **   ~~~   **   Max=0.083900  Min=0.083900\n   *************\n   *************  ** Warning ** Controller:OutdoorAir=\"ZONE OFFICE WHOLEBUILDING - MD OFFICE B END_A - STORY GROUND PSZ-AC OA SYSTEM CONTROLLER\": Min OA fraction > Mechanical ventilation OA fraction, continues...\n   *************  **   ~~~   **   This error occurred 93027 total times;\n   *************  **   ~~~   **   during Warmup 0 times;\n   *************  **   ~~~   **   during Sizing 0 times.\n   *************  **   ~~~   **   Max=0.154429  Min=0.154429\n   *************\n   *************  ** Warning ** Controller:OutdoorAir=\"ZONE OFFICE WHOLEBUILDING - MD OFFICE B END_B - STORY GROUND PSZ-AC OA SYSTEM CONTROLLER\": Min OA fraction > Mechanical ventilation OA fraction, continues...\n   *************  **   ~~~   **   This error occurred 91725 total times;\n   *************  **   ~~~   **   during Warmup 0 times;\n   *************  **   ~~~   **   during Sizing 0 times.\n   *************  **   ~~~   **   Max=0.149798  Min=0.149798\n   *************\n   *************  ** Warning ** Controller:OutdoorAir=\"ZONE OFFICE WHOLEBUILDING - MD OFFICE C  - STORY GROUND PSZ-AC OA SYSTEM CONTROLLER\": Min OA fraction > Mechanical ventilation OA fraction, continues...\n   *************  **   ~~~   **   This error occurred 95953 total times;\n   *************  **   ~~~   **   during Warmup 0 times;\n   *************  **   ~~~   **   during Sizing 0 times.\n   *************  **   ~~~   **   Max=0.162042  Min=0.162042\n   *************\n   *************  ** Warning ** Controller:OutdoorAir=\"ZONE OFFICE WHOLEBUILDING - MD OFFICE C END_A - STORY GROUND PSZ-AC OA SYSTEM CONTROLLER\": Min OA fraction > Mechanical ventilation OA fraction, continues...\n   *************  **   ~~~   **   This error occurred 133541 total times;\n   *************  **   ~~~   **   during Warmup 0 times;\n   *************  **   ~~~   **   during Sizing 0 times.\n   *************  **   ~~~   **   Max=0.083829  Min=0.083829\n   *************\n   *************  ** Warning ** Controller:OutdoorAir=\"ZONE OFFICE WHOLEBUILDING - MD OFFICE C END_B - STORY GROUND PSZ-AC OA SYSTEM CONTROLLER\": Min OA fraction > Mechanical ventilation OA fraction, continues...\n   *************  **   ~~~   **   This error occurred 133159 total times;\n   *************  **   ~~~   **   during Warmup 0 times;\n   *************  **   ~~~   **   during Sizing 0 times.\n   *************  **   ~~~   **   Max=0.083865  Min=0.083865\n   *************\n   *************  ** Warning ** \"OFFICE WHOLEBUILDING - MD OFFICE - DOE REF 1980-2004 SERVICE WATER USE 0.13GPM AT 140F\" - Target water temperature should be less than or equal to the hot water temperature error continues...\n   *************  **   ~~~   **   This error occurred 503103 total times;\n   *************  **   ~~~   **   during Warmup 0 times;\n   *************  **   ~~~   **   during Sizing 0 times.\n   *************  **   ~~~   **   Max=40.398835  Min=25.040984\n   *************\n   *************  ** Warning ** Controller:OutdoorAir=\"ZONE OFFICE WHOLEBUILDING - MD OFFICE B  - STORY GROUND PSZ-AC OA SYSTEM CONTROLLER\": Min OA fraction > Mechanical ventilation OA fraction, continues...\n   *************  **   ~~~   **   This error occurred 44 total times;\n   *************  **   ~~~   **   during Warmup 0 times;\n   *************  **   ~~~   **   during Sizing 0 times.\n   *************  **   ~~~   **   Max=0.171779  Min=0.171779\n   *************\n   *************\n   ************* ===== Final Error Summary =====\n   ************* The following error categories occurred.  Consider correcting or noting.\n   ************* Nominally Unused Constructions\n   ************* ..The nominally unused constructions warning is provided to alert you to potential conditions that can cause\n   ************* ..extra time during simulation. Each construction is calculated by the algorithm indicated in the HeatBalanceAlgorithm\n   ************* ..object. You may remove the constructions indicated (when you use the DisplayExtraWarnings option).\n   *************\n   ************* EnergyPlus Warmup Error Summary. During Warmup: 0 Warning; 0 Severe Errors.\n   ************* EnergyPlus Sizing Error Summary. During Sizing: 48 Warning; 1 Severe Errors.\n   ************* EnergyPlus Completed Successfully-- 1399709 Warning; 1 Severe Errors; Elapsed Time=00hr 00min 29.50sec\n",
   "file_paths" : 
   [
      "/private/var/folders/cj/vhw1_9g1151dh76sjlgdyq19k7f3h5/T/osmodel-1685569239-1/resources/generated_files",
      "./files",
      "./weather",
      "../../files",
      "../../weather",
      "./"
   ],
   "hash" : "8AD78F7B",
   "seed_file" : "../T1 copy.osm",
   "started_at" : "20230531T215236Z",
   "steps" : 
   [
      {
         "arguments" : 
         {
            "bldg_type_a" : "MediumOffice",
            "bottom_story_ground_exposed_floor" : true,
            "climate_zone" : "ASHRAE 169-2013-8A",
            "floor_height" : 20,
            "ns_to_ew_ratio" : 1.5,
            "num_stories_above_grade" : 1,
            "num_stories_below_grade" : 0,
            "single_floor_area" : 0,
            "template" : "DOE Ref 1980-2004",
            "total_bldg_floor_area" : 14468,
            "wwr" : 0.050000000000000003
         },
         "description" : "Creates one or more rectangular building elements based on space type ratios of selected mix of building types, along with user arguments that describe the desired geometry characteristics.",
         "measure_dir_name" : "create_bar_from_building_type_ratios",
         "modeler_description" : "The building floor area can be described as a footprint size or as a total building area. The shape can be described by its aspect ratio or can be defined as a set width. Because this measure contains both DOE and DEER inputs, care needs to be taken to choose a template compatable with the selected building types. See readme document for additional guidance.",
         "name" : "Create Bar From Building Type Ratios",
         "result" : 
         {
            "completed_at" : "20230531T215242Z",
            "measure_class_name" : "CreateBarFromBuildingTypeRatios",
            "measure_display_name" : "Create Bar From Building Type Ratios",
            "measure_name" : "create_bar_from_building_type_ratios",
            "measure_taxonomy" : "Envelope.Form",
            "measure_type" : "ModelMeasure",
            "measure_uid" : "6e3a14f8-c3c7-4e03-bc51-bef8a52e1a05",
            "measure_version_id" : "284657fc-3c1a-44b5-a173-4c83ed184791",
            "measure_version_modified" : "20220706T134207Z",
            "measure_xml_checksum" : "2AF3A68E",
            "started_at" : "20230531T215241Z",
            "stderr" : "",
            "stdout" : "",
            "step_errors" : [],
            "step_files" : [],
            "step_final_condition" : "The building finished with 9 spaces.",
            "step_info" : 
            [
               "0.0 value for minimum perimeter multiplier will be replaced with smart default for MediumOffice of 1.0.",
               "Removed 374 non resource objects from the model.",
               "Creating Space Types for MediumOffice.",
               "Making bar with length of 147 ft and width of 98 ft",
               "Intersecting and matching surfaces in model, this will create additional geometry.",
               "Created bar envelope with floor area of 14,468 ft^2."
            ],
            "step_initial_condition" : "The building started with 6 spaces.",
            "step_result" : "Success",
            "step_values" : 
            [
               {
                  "name" : "bldg_type_a",
                  "value" : "MediumOffice"
               },
               {
                  "name" : "bldg_subtype_a",
                  "value" : "NA"
               },
               {
                  "name" : "bldg_type_a_num_units",
                  "value" : 1
               },
               {
                  "name" : "bldg_type_b",
                  "value" : "SmallOffice"
               },
               {
                  "name" : "bldg_subtype_b",
                  "value" : "NA"
               },
               {
                  "name" : "bldg_type_b_fract_bldg_area",
                  "value" : 0.0
               },
               {
                  "name" : "bldg_type_b_num_units",
                  "value" : 1
               },
               {
                  "name" : "bldg_type_c",
                  "value" : "SmallOffice"
               },
               {
                  "name" : "bldg_subtype_c",
                  "value" : "NA"
               },
               {
                  "name" : "bldg_type_c_fract_bldg_area",
                  "value" : 0.0
               },
               {
                  "name" : "bldg_type_c_num_units",
                  "value" : 1
               },
               {
                  "name" : "bldg_type_d",
                  "value" : "SmallOffice"
               },
               {
                  "name" : "bldg_subtype_d",
                  "value" : "NA"
               },
               {
                  "name" : "bldg_type_d_fract_bldg_area",
                  "value" : 0.0
               },
               {
                  "name" : "bldg_type_d_num_units",
                  "value" : 1
               },
               {
                  "name" : "single_floor_area",
                  "value" : 0.0
               },
               {
                  "name" : "total_bldg_floor_area",
                  "value" : 14468.0
               },
               {
                  "name" : "floor_height",
                  "value" : 20.0
               },
               {
                  "name" : "custom_height_bar",
                  "value" : true
               },
               {
                  "name" : "num_stories_above_grade",
                  "value" : 1.0
               },
               {
                  "name" : "num_stories_below_grade",
                  "value" : 0
               },
               {
                  "name" : "building_rotation",
                  "value" : 0.0
               },
               {
                  "name" : "template",
                  "value" : "DOE Ref 1980-2004"
               },
               {
                  "name" : "ns_to_ew_ratio",
                  "value" : 1.5
               },
               {
                  "name" : "perim_mult",
                  "value" : 0.0
               },
               {
                  "name" : "bar_sep_dist_mult",
                  "value" : 10.0
               },
               {
                  "name" : "wwr",
                  "value" : 0.050000000000000003
               },
               {
                  "name" : "party_wall_fraction",
                  "value" : 0.0
               },
               {
                  "name" : "party_wall_stories_north",
                  "value" : 0
               },
               {
                  "name" : "party_wall_stories_south",
                  "value" : 0
               },
               {
                  "name" : "party_wall_stories_east",
                  "value" : 0
               },
               {
                  "name" : "party_wall_stories_west",
                  "value" : 0
               },
               {
                  "name" : "neighbor_height_method",
                  "value" : "Absolute"
               },
               {
                  "name" : "building_height_relative_to_neighbors",
                  "value" : 0.0
               },
               {
                  "name" : "neighbor_height_north",
                  "value" : 0.0
               },
               {
                  "name" : "neighbor_height_south",
                  "value" : 0.0
               },
               {
                  "name" : "neighbor_height_east",
                  "value" : 0.0
               },
               {
                  "name" : "neighbor_height_west",
                  "value" : 0.0
               },
               {
                  "name" : "neighbor_offset_north",
                  "value" : 0.0
               },
               {
                  "name" : "neighbor_offset_south",
                  "value" : 0.0
               },
               {
                  "name" : "neighbor_offset_east",
                  "value" : 0.0
               },
               {
                  "name" : "neighbor_offset_west",
                  "value" : 0.0
               },
               {
                  "name" : "bottom_story_ground_exposed_floor",
                  "value" : true
               },
               {
                  "name" : "top_story_exterior_exposed_roof",
                  "value" : true
               },
               {
                  "name" : "story_multiplier",
                  "value" : "Basements Ground Mid Top"
               },
               {
                  "name" : "make_mid_story_surfaces_adiabatic",
                  "value" : false
               },
               {
                  "name" : "bar_division_method",
                  "value" : "Multiple Space Types - Individual Stories Sliced"
               },
               {
                  "name" : "double_loaded_corridor",
                  "value" : "Primary Space Type"
               },
               {
                  "name" : "space_type_sort_logic",
                  "value" : "Building Type > Size"
               },
               {
                  "name" : "use_upstream_args",
                  "value" : true
               },
               {
                  "name" : "climate_zone",
                  "value" : "ASHRAE 169-2013-8A"
               },
               {
                  "name" : "wall_area_ip",
                  "units" : "ft^2",
                  "value" : 9821.0657941658064
               },
               {
                  "name" : "ns_wall_area_ip",
                  "units" : "ft^2",
                  "value" : 5892.6394764994757
               },
               {
                  "name" : "ew_wall_area_ip",
                  "units" : "ft^2",
                  "value" : 3928.4263176663317
               },
               {
                  "name" : "floor_area_to_perim_ratio",
                  "value" : 8.9803825621852216
               },
               {
                  "name" : "bar_width",
                  "units" : "ft",
                  "value" : 98.2106579416579
               }
            ],
            "step_warnings" : []
         }
      },
      {
         "arguments" : 
         {
            "add_elevators" : false,
            "add_exterior_lights" : false,
            "add_refrigeration" : false,
            "climate_zone" : "ASHRAE 169-2013-8A",
            "exterior_lighting_zone" : "0 - Undeveloped Areas Parks",
            "htg_src" : "DistrictHeating",
            "kitchen_makeup" : "None",
            "modify_wkdy_op_hrs" : true,
            "modify_wknd_op_hrs" : false,
            "onsite_parking_fraction" : 0,
            "system_type" : "PSZ-AC with gas coil",
            "template" : "DOE Ref 1980-2004",
            "wall_construction_type" : "Mass",
            "wkdy_op_hrs_duration" : 0,
            "wkdy_op_hrs_start_time" : 0,
            "wknd_op_hrs_duration" : 0,
            "wknd_op_hrs_start_time" : 0
         },
         "description" : "Takes a model with space and stub space types, and assigns constructions, schedules, internal loads, hvac, and other loads such as exterior lights and service water heating.",
         "measure_dir_name" : "create_typical_building_from_model 1",
         "modeler_description" : "It is important that the template argument chosen for this measure is in line with the building types for the stub space types of the model passed in.",
         "name" : "Create Typical Building from Model",
         "result" : 
         {
            "completed_at" : "20230531T215309Z",
            "measure_class_name" : "CreateTypicalBuildingFromModel",
            "measure_display_name" : "Create Typical Building from Model",
            "measure_name" : "create_typical_building_from_model",
            "measure_taxonomy" : "Whole Building.Space Types",
            "measure_type" : "ModelMeasure",
            "measure_uid" : "339a2e3a-273c-4494-bb50-bfe586a0647c",
            "measure_version_id" : "3a5df9be-08ca-4108-af82-2e1aaa539a88",
            "measure_version_modified" : "20220913T124426Z",
            "measure_xml_checksum" : "EE13F09F",
            "started_at" : "20230531T215242Z",
            "stderr" : "",
            "stdout" : "[utilities.geometry.removeHoles] <1> Failed to partition polygon\n",
            "step_errors" : [],
            "step_files" : [],
            "step_final_condition" : "The building finished with 1237 objects.",
            "step_info" : 
            [
               "Replacing argument named climate_zone from current measure with a value of ASHRAE 169-2013-8A from Create Bar From Building Type Ratios.",
               "Replacing argument named template from current measure with a value of DOE Ref 1980-2004 from Create Bar From Building Type Ratios.",
               "Using climate zone ASHRAE 169-2013-8A from user arguments",
               "Adding loads to space type named Office Attic - DOE Ref 1980-2004",
               "Adding loads to space type named Office WholeBuilding - Md Office - DOE Ref 1980-2004",
               "Adding loads to space type named Office WholeBuilding - Sm Office - DOE Ref 1980-2004",
               "Using climate zone ASHRAE 169-2013-8A from user arguments",
               "Set FC factor constructions for slab and below grade walls.",
               "Adding default construction set named DOE Ref 1980-2004 - Office - ASHRAE 169-2013-8A",
               "Exterior wall construction type Mass is the default for this building type.",
               "Adding Office Shared Service Water Loop to the building. It has 1 water use connections.",
               "Assigning Office WholeBuilding - Md Office - DOE Ref 1980-2004 Thermostat to thermal zones with Office WholeBuilding - Md Office - DOE Ref 1980-2004 assigned.",
               "Assigning Office WholeBuilding - Sm Office - DOE Ref 1980-2004 Thermostat to thermal zones with Office WholeBuilding - Sm Office - DOE Ref 1980-2004 assigned.",
               "Updated 10 schedules with new hours of operation.",
               "Using OpenStudio Standards version 0.3.1.rc1 with template DOE Ref 1980-2004.",
               "Loading OpenStudio Standards data for DOE Ref 1980-2004",
               "Office Attic had no ventilation specification, one has been created.",
               "Office Attic set infiltration schedule to Small Office Infil Quarter On.",
               "Office WholeBuilding - Md Office had no people, one has been created.",
               "Office WholeBuilding - Md Office set occupancy to 5.0 people/1000 ft^2.",
               "Office WholeBuilding - Md Office had no lights, one has been created.",
               "Office WholeBuilding - Md Office set LPD to 1.57 W/ft^2.",
               "Office WholeBuilding - Md Office had no electric equipment, one has been created.",
               "Office WholeBuilding - Md Office set electric EPD to 1.0 W/ft^2.",
               "Office WholeBuilding - Md Office had no ventilation specification, one has been created.",
               "Office WholeBuilding - Md Office set ventilation per person to 20.0 cfm/person.",
               "Office WholeBuilding - Md Office set occupancy schedule to Medium Office Bldg Occ.",
               "Office WholeBuilding - Md Office set occupant activity schedule to Medium Office Activity.",
               "Office WholeBuilding - Md Office set lighting schedule to Office Bldg Light.",
               "Office WholeBuilding - Md Office set electric equipment schedule to Medium Office Bldg Equip.",
               "Office WholeBuilding - Md Office set infiltration schedule to Medium Office Infil Quarter On.",
               "Office WholeBuilding - Sm Office had no people, one has been created.",
               "Office WholeBuilding - Sm Office set occupancy to 5.0 people/1000 ft^2.",
               "Office WholeBuilding - Sm Office had no lights, one has been created.",
               "Office WholeBuilding - Sm Office set LPD to 1.81 W/ft^2.",
               "Office WholeBuilding - Sm Office had no electric equipment, one has been created.",
               "Office WholeBuilding - Sm Office set electric EPD to 1.0 W/ft^2.",
               "Office WholeBuilding - Sm Office had no ventilation specification, one has been created.",
               "Office WholeBuilding - Sm Office set ventilation per person to 20.0 cfm/person.",
               "Office WholeBuilding - Sm Office set occupancy schedule to Small Office Bldg Occ.",
[...]
                  "units" : "kWh",
                  "value" : 0.0
               },
               {
                  "name" : "fuel_oil_no_1_exterior_lighting_ip",
                  "units" : "kWh",
                  "value" : 0.0
               },
               {
                  "name" : "fuel_oil_no_1_interior_equipment_ip",
                  "units" : "kWh",
                  "value" : 0.0
               },
               {
                  "name" : "fuel_oil_no_1_exterior_equipment_ip",
                  "units" : "kWh",
                  "value" : 0.0
               },
               {
                  "name" : "fuel_oil_no_1_fans_ip",
                  "units" : "kWh",
                  "value" : 0.0
               },
               {
                  "name" : "fuel_oil_no_1_pumps_ip",
                  "units" : "kWh",
                  "value" : 0.0
               },
               {
                  "name" : "fuel_oil_no_1_heat_rejection_ip",
                  "units" : "kWh",
                  "value" : 0.0
               },
               {
                  "name" : "fuel_oil_no_1_humidification_ip",
                  "units" : "kWh",
                  "value" : 0.0
               },
               {
                  "name" : "fuel_oil_no_1_heat_recovery_ip",
                  "units" : "kWh",
                  "value" : 0.0
               },
               {
                  "name" : "fuel_oil_no_1_water_systems_ip",
                  "units" : "kWh",
                  "value" : 0.0
               },
               {
                  "name" : "fuel_oil_no_1_refrigeration_ip",
                  "units" : "kWh",
                  "value" : 0.0
               },
               {
                  "name" : "fuel_oil_no_1_generators_ip",
                  "units" : "kWh",
                  "value" : 0.0
               },
               {
                  "name" : "fuel_oil_no_1_ip",
                  "units" : "kWh",
                  "value" : 0.0
               },
               {
                  "name" : "fuel_oil_no_2_heating_ip",
                  "units" : "kWh",
                  "value" : 0.0
               },
               {
                  "name" : "fuel_oil_no_2_cooling_ip",
                  "units" : "kWh",
                  "value" : 0.0
               },
               {
                  "name" : "fuel_oil_no_2_interior_lighting_ip",
                  "units" : "kWh",
                  "value" : 0.0
               },
               {
                  "name" : "fuel_oil_no_2_exterior_lighting_ip",
                  "units" : "kWh",
                  "value" : 0.0
               },
               {
                  "name" : "fuel_oil_no_2_interior_equipment_ip",
                  "units" : "kWh",
                  "value" : 0.0
               },
               {
                  "name" : "fuel_oil_no_2_exterior_equipment_ip",
                  "units" : "kWh",
                  "value" : 0.0
               },
               {
                  "name" : "fuel_oil_no_2_fans_ip",
                  "units" : "kWh",
                  "value" : 0.0
               },
               {
                  "name" : "fuel_oil_no_2_pumps_ip",
                  "units" : "kWh",
                  "value" : 0.0
               },
               {
                  "name" : "fuel_oil_no_2_heat_rejection_ip",
                  "units" : "kWh",
                  "value" : 0.0
               },
               {
                  "name" : "fuel_oil_no_2_humidification_ip",
                  "units" : "kWh",
                  "value" : 0.0
               },
               {
                  "name" : "fuel_oil_no_2_heat_recovery_ip",
                  "units" : "kWh",
                  "value" : 0.0
               },
               {
                  "name" : "fuel_oil_no_2_water_systems_ip",
                  "units" : "kWh",
                  "value" : 0.0
               },
               {
                  "name" : "fuel_oil_no_2_refrigeration_ip",
                  "units" : "kWh",
                  "value" : 0.0
               },
               {
                  "name" : "fuel_oil_no_2_generators_ip",
                  "units" : "kWh",
                  "value" : 0.0
               },
               {
                  "name" : "fuel_oil_no_2_ip",
                  "units" : "kWh",
                  "value" : 0.0
               },
               {
                  "name" : "propane_heating_ip",
                  "units" : "kWh",
                  "value" : 0.0
               },
               {
                  "name" : "propane_cooling_ip",
                  "units" : "kWh",
                  "value" : 0.0
               },
               {
                  "name" : "propane_interior_lighting_ip",
                  "units" : "kWh",
                  "value" : 0.0
               },
               {
                  "name" : "propane_exterior_lighting_ip",
                  "units" : "kWh",
                  "value" : 0.0
               },
               {
                  "name" : "propane_interior_equipment_ip",
                  "units" : "kWh",
                  "value" : 0.0
               },
               {
                  "name" : "propane_exterior_equipment_ip",
                  "units" : "kWh",
                  "value" : 0.0
               },
               {
                  "name" : "propane_fans_ip",
                  "units" : "kWh",
                  "value" : 0.0
               },
               {
                  "name" : "propane_pumps_ip",
                  "units" : "kWh",
                  "value" : 0.0
               },
               {
                  "name" : "propane_heat_rejection_ip",
                  "units" : "kWh",
                  "value" : 0.0
               },
               {
                  "name" : "propane_humidification_ip",
                  "units" : "kWh",
                  "value" : 0.0
               },
               {
                  "name" : "propane_heat_recovery_ip",
                  "units" : "kWh",
                  "value" : 0.0
               },
               {
                  "name" : "propane_water_systems_ip",
                  "units" : "kWh",
                  "value" : 0.0
               },
               {
                  "name" : "propane_refrigeration_ip",
                  "units" : "kWh",
                  "value" : 0.0
               },
               {
                  "name" : "propane_generators_ip",
                  "units" : "kWh",
                  "value" : 0.0
               },
               {
                  "name" : "propane_ip",
                  "units" : "kWh",
                  "value" : 0.0
               },
               {
                  "name" : "other_fuel_1_heating_ip",
                  "units" : "kWh",
                  "value" : 0.0
               },
               {
                  "name" : "other_fuel_1_cooling_ip",
                  "units" : "kWh",
                  "value" : 0.0
               },
               {
                  "name" : "other_fuel_1_interior_lighting_ip",
                  "units" : "kWh",
                  "value" : 0.0
               },
               {
                  "name" : "other_fuel_1_exterior_lighting_ip",
                  "units" : "kWh",
                  "value" : 0.0
               },
               {
                  "name" : "other_fuel_1_interior_equipment_ip",
                  "units" : "kWh",
                  "value" : 0.0
               },
               {
                  "name" : "other_fuel_1_exterior_equipment_ip",
                  "units" : "kWh",
                  "value" : 0.0
               },
               {
                  "name" : "other_fuel_1_fans_ip",
                  "units" : "kWh",
                  "value" : 0.0
               },
               {
                  "name" : "other_fuel_1_pumps_ip",
                  "units" : "kWh",
                  "value" : 0.0
               },
               {
                  "name" : "other_fuel_1_heat_rejection_ip",
                  "units" : "kWh",
                  "value" : 0.0
               },
               {
                  "name" : "other_fuel_1_humidification_ip",
                  "units" : "kWh",
                  "value" : 0.0
               },
               {
                  "name" : "other_fuel_1_heat_recovery_ip",
                  "units" : "kWh",
                  "value" : 0.0
               },
               {
                  "name" : "other_fuel_1_water_systems_ip",
                  "units" : "kWh",
                  "value" : 0.0
               },
               {
                  "name" : "other_fuel_1_refrigeration_ip",
                  "units" : "kWh",
                  "value" : 0.0
               },
               {
                  "name" : "other_fuel_1_generators_ip",
                  "units" : "kWh",
                  "value" : 0.0
               },
               {
                  "name" : "other_fuel_1_ip",
                  "units" : "kWh",
                  "value" : 0.0
               },
               {
                  "name" : "other_fuel_2_heating_ip",
                  "units" : "kWh",
                  "value" : 0.0
               },
               {
                  "name" : "other_fuel_2_cooling_ip",
                  "units" : "kWh",
                  "value" : 0.0
               },
               {
                  "name" : "other_fuel_2_interior_lighting_ip",
                  "units" : "kWh",
                  "value" : 0.0
               },
               {
                  "name" : "other_fuel_2_exterior_lighting_ip",
                  "units" : "kWh",
                  "value" : 0.0
               },
               {
                  "name" : "other_fuel_2_interior_equipment_ip",
                  "units" : "kWh",
                  "value" : 0.0
               },
               {
                  "name" : "other_fuel_2_exterior_equipment_ip",
                  "units" : "kWh",
                  "value" : 0.0
               },
               {
                  "name" : "other_fuel_2_fans_ip",
                  "units" : "kWh",
                  "value" : 0.0
               },
               {
                  "name" : "other_fuel_2_pumps_ip",
                  "units" : "kWh",
                  "value" : 0.0
               },
               {
                  "name" : "other_fuel_2_heat_rejection_ip",
                  "units" : "kWh",
                  "value" : 0.0
               },
               {
                  "name" : "other_fuel_2_humidification_ip",
                  "units" : "kWh",
                  "value" : 0.0
               },
               {
                  "name" : "other_fuel_2_heat_recovery_ip",
                  "units" : "kWh",
                  "value" : 0.0
               },
               {
                  "name" : "other_fuel_2_water_systems_ip",
                  "units" : "kWh",
                  "value" : 0.0
               },
               {
                  "name" : "other_fuel_2_refrigeration_ip",
                  "units" : "kWh",
                  "value" : 0.0
               },
               {
                  "name" : "other_fuel_2_generators_ip",
                  "units" : "kWh",
                  "value" : 0.0
               },
               {
                  "name" : "other_fuel_2_ip",
                  "units" : "kWh",
                  "value" : 0.0
               },
               {
                  "name" : "district_cooling_heating_ip",
                  "units" : "kWh",
                  "value" : 0.0
               },
               {
                  "name" : "district_cooling_cooling_ip",
                  "units" : "kWh",
                  "value" : 0.0
               },
               {
                  "name" : "district_cooling_interior_lighting_ip",
                  "units" : "kWh",
                  "value" : 0.0
               },
               {
                  "name" : "district_cooling_exterior_lighting_ip",
                  "units" : "kWh",
                  "value" : 0.0
               },
               {
                  "name" : "district_cooling_interior_equipment_ip",
                  "units" : "kWh",
                  "value" : 0.0
               },
               {
                  "name" : "district_cooling_exterior_equipment_ip",
                  "units" : "kWh",
                  "value" : 0.0
               },
               {
                  "name" : "district_cooling_fans_ip",
                  "units" : "kWh",
                  "value" : 0.0
               },
               {
                  "name" : "district_cooling_pumps_ip",
                  "units" : "kWh",
                  "value" : 0.0
               },
               {
                  "name" : "district_cooling_heat_rejection_ip",
                  "units" : "kWh",
                  "value" : 0.0
               },
               {
                  "name" : "district_cooling_humidification_ip",
                  "units" : "kWh",
                  "value" : 0.0
               },
               {
                  "name" : "district_cooling_heat_recovery_ip",
                  "units" : "kWh",
                  "value" : 0.0
               },
               {
                  "name" : "district_cooling_water_systems_ip",
                  "units" : "kWh",
                  "value" : 0.0
               },
               {
                  "name" : "district_cooling_refrigeration_ip",
                  "units" : "kWh",
                  "value" : 0.0
               },
               {
                  "name" : "district_cooling_generators_ip",
                  "units" : "kWh",
                  "value" : 0.0
               },
               {
                  "name" : "district_cooling_ip",
                  "units" : "kWh",
                  "value" : 0.0
               },
               {
                  "name" : "district_heating_heating_ip",
                  "units" : "kWh",
                  "value" : 0.0
               },
               {
                  "name" : "district_heating_cooling_ip",
                  "units" : "kWh",
                  "value" : 0.0
               },
               {
                  "name" : "district_heating_interior_lighting_ip",
                  "units" : "kWh",
                  "value" : 0.0
               },
               {
                  "name" : "district_heating_exterior_lighting_ip",
                  "units" : "kWh",
                  "value" : 0.0
               },
               {
                  "name" : "district_heating_interior_equipment_ip",
                  "units" : "kWh",
                  "value" : 0.0
               },
               {
                  "name" : "district_heating_exterior_equipment_ip",
                  "units" : "kWh",
                  "value" : 0.0
               },
               {
                  "name" : "district_heating_fans_ip",
                  "units" : "kWh",
                  "value" : 0.0
               },
               {
                  "name" : "district_heating_pumps_ip",
                  "units" : "kWh",
                  "value" : 0.0
               },
               {
                  "name" : "district_heating_heat_rejection_ip",
                  "units" : "kWh",
                  "value" : 0.0
               },
               {
                  "name" : "district_heating_humidification_ip",
                  "units" : "kWh",
                  "value" : 0.0
               },
               {
                  "name" : "district_heating_heat_recovery_ip",
                  "units" : "kWh",
                  "value" : 0.0
               },
               {
                  "name" : "district_heating_water_systems_ip",
                  "units" : "kWh",
                  "value" : 0.0
               },
               {
                  "name" : "district_heating_refrigeration_ip",
                  "units" : "kWh",
                  "value" : 0.0
               },
               {
                  "name" : "district_heating_generators_ip",
                  "units" : "kWh",
                  "value" : 0.0
               },
               {
                  "name" : "district_heating_ip",
                  "units" : "kWh",
                  "value" : 0.0
               },
               {
                  "name" : "typical_iead_roof_r_32_26",
                  "units" : "m^2",
                  "value" : 1344.1211827200054
               },
               {
                  "name" : "typical_insulated_exterior_mass_wall_r_21_28",
                  "units" : "m^2",
                  "value" : 866.78652490211664
               },
               {
                  "name" : "u_0_52_shgc_0_615_simple_glazing_window_u_0_52_shgc_0_49",
                  "units" : "m^2",
                  "value" : 45.620343415901146
               },
               {
                  "name" : "gross_window_wall_ratio",
                  "units" : "%",
                  "value" : 5.0
               },
               {
                  "name" : "gross_window_wall_ratio_conditioned",
                  "units" : "%",
                  "value" : 5.0
               },
               {
                  "name" : "skylight_roof_ratio",
                  "units" : "%",
                  "value" : 0.0
               },
               {
                  "name" : "space_type_office_whole_building_md_office_doe_ref_1980_2004",
                  "units" : "m^2",
                  "value" : 1344.1211827200054
               },
               {
                  "name" : "office_whole_building_md_office_doe_ref_1980_2004_service_water_use_0_13_gpm_at_140_f",
                  "units" : "m^3/h",
                  "value" : 0.030300345141178894
               },
               {
                  "name" : "zone_max_hours_over_70_rh",
                  "units" : "hr",
                  "value" : 23.0
               },
               {
                  "name" : "zone_max_hours_over_55_rh",
                  "units" : "hr",
                  "value" : 1475.0
               },
               {
                  "name" : "num_zones_x_hours_over_70",
                  "units" : "zones",
                  "value" : 4
               },
               {
                  "name" : "num_zones_x_hours_over_55",
                  "units" : "zones",
                  "value" : 9
               },
               {
                  "name" : "inflation_approach",
                  "value" : "Constant Dollar"
               },
               {
                  "name" : "analysis_length",
                  "units" : "yrs",
                  "value" : 25
               },
               {
                  "name" : "number_of_measures_with_warnings",
                  "value" : 1
               },
               {
                  "name" : "number_warnings",
                  "value" : 62
               },
               {
                  "name" : "annual_peak_electric_demand",
                  "units" : "kW",
                  "value" : 41.669969999999999
               },
               {
                  "name" : "first_year_capital_cost",
                  "units" : "$",
                  "value" : 0.0
               },
               {
                  "name" : "annual_utility_cost",
                  "units" : "$",
                  "value" : 0.0
               },
               {
                  "name" : "total_lifecycle_cost",
                  "units" : "$",
                  "value" : 0.0
               }
            ],
            "step_warnings" : []
         }
      }
   ],
   "updated_at" : "20230531T215353Z",
   "weather_file" : "Kodiak_Airport_703500_TMY3.epw"
}