Program Version,EnergyPlus, Version 22.2.0-aa78da9668, YMD=2023.03.30 09:21
! <Version>, Version ID
 Version, 22.2
! <Timesteps per Hour>, #TimeSteps, Minutes per TimeStep {minutes}
 Timesteps per Hour,  6, 10
! <System Convergence Limits>, Minimum System TimeStep {minutes}, Max HVAC Iterations, Minimum Plant Iterations, Maximum Plant Iterations
 System Convergence Limits, 1, 20, 2, 8
! <Simulation Control>, Do Zone Sizing, Do System Sizing, Do Plant Sizing, Do Design Days, Do Weather Simulation, Do HVAC Sizing Simulation
 Simulation Control, Yes, Yes, Yes, Yes, No, Yes
! <Performance Precision Tradeoffs>, Use Coil Direct Simulation, Zone Radiant Exchange Algorithm, Override Mode, Number of Timestep In Hour, Force Euler Method, Minimum Number of Warmup Days, Force Suppress All Begin Environment Resets, Minimum System Timestep, MaxZoneTempDiff, MaxAllowedDelTemp
 Performance Precision Tradeoffs, No, ScriptF, Normal, 6, No, 1, No, 1.0, 0.300, 2.0000E-003
! <Output Reporting Tolerances>, Tolerance for Time Heating Setpoint Not Met, Tolerance for Zone Cooling Setpoint Not Met Time
 Output Reporting Tolerances, 0.200, 0.200, 
! <Site:GroundTemperature:BuildingSurface>,Jan{C},Feb{C},Mar{C},Apr{C},May{C},Jun{C},Jul{C},Aug{C},Sep{C},Oct{C},Nov{C},Dec{C}
 Site:GroundTemperature:BuildingSurface,  18.00,  18.00,  18.00,  18.00,  18.00,  18.00,  18.00,  18.00,  18.00,  18.00,  18.00,  18.00
! <Site:GroundTemperature:FCfactorMethod>,Jan{C},Feb{C},Mar{C},Apr{C},May{C},Jun{C},Jul{C},Aug{C},Sep{C},Oct{C},Nov{C},Dec{C}
 Site:GroundTemperature:FCfactorMethod,  -3.10, -17.70, -19.30, -17.60, -15.40, -10.30,   0.70,  10.60,  16.00,  16.90,  14.20,   6.70
! <Site:GroundTemperature:Shallow>,Jan{C},Feb{C},Mar{C},Apr{C},May{C},Jun{C},Jul{C},Aug{C},Sep{C},Oct{C},Nov{C},Dec{C}
 Site:GroundTemperature:Shallow,  13.00,  13.00,  13.00,  13.00,  13.00,  13.00,  13.00,  13.00,  13.00,  13.00,  13.00,  13.00
! <Site:GroundTemperature:Deep>,Jan{C},Feb{C},Mar{C},Apr{C},May{C},Jun{C},Jul{C},Aug{C},Sep{C},Oct{C},Nov{C},Dec{C}
 Site:GroundTemperature:Deep,  16.00,  16.00,  16.00,  16.00,  16.00,  16.00,  16.00,  16.00,  16.00,  16.00,  16.00,  16.00
! <Site:GroundReflectance>,Jan{dimensionless},Feb{dimensionless},Mar{dimensionless},Apr{dimensionless},May{dimensionless},Jun{dimensionless},Jul{dimensionless},Aug{dimensionless},Sep{dimensionless},Oct{dimensionless},Nov{dimensionless},Dec{dimensionless}
 Site:GroundReflectance,  0.20,  0.20,  0.20,  0.20,  0.20,  0.20,  0.20,  0.20,  0.20,  0.20,  0.20,  0.20
! <Site:GroundReflectance:SnowModifier>, Normal, Daylighting {dimensionless}
 Site:GroundReflectance:SnowModifier,   1.000,   1.000
! <Site:GroundReflectance:Snow>,Jan{dimensionless},Feb{dimensionless},Mar{dimensionless},Apr{dimensionless},May{dimensionless},Jun{dimensionless},Jul{dimensionless},Aug{dimensionless},Sep{dimensionless},Oct{dimensionless},Nov{dimensionless},Dec{dimensionless}
 Site:GroundReflectance:Snow,  0.20,  0.20,  0.20,  0.20,  0.20,  0.20,  0.20,  0.20,  0.20,  0.20,  0.20,  0.20
! <Site:GroundReflectance:Snow:Daylighting>,Jan{dimensionless},Feb{dimensionless},Mar{dimensionless},Apr{dimensionless},May{dimensionless},Jun{dimensionless},Jul{dimensionless},Aug{dimensionless},Sep{dimensionless},Oct{dimensionless},Nov{dimensionless},Dec{dimensionless}
 Site:GroundReflectance:Snow:Daylighting,  0.20,  0.20,  0.20,  0.20,  0.20,  0.20,  0.20,  0.20,  0.20,  0.20,  0.20,  0.20
! <Environment:Weather Station>,Wind Sensor Height Above Ground {m},Wind Speed Profile Exponent {},Wind Speed Profile Boundary Layer Thickness {m},Air Temperature Sensor Height Above Ground {m},Wind Speed Modifier Coefficient-Internal,Temperature Modifier Coefficient-Internal
Environment:Weather Station,10.000,0.140,270.000,1.500,1.586,9.750E-003
! <Site:Location>, Location Name, Latitude {N+/S- Deg}, Longitude {E+/W- Deg},  Time Zone Number {GMT+/-}, Elevation {m},  Standard Pressure at Elevation {Pa}, Standard RhoAir at Elevation
Site:Location,Kodiak AK USA customized weather file WMO#=703500,57.75,-152.49,-9.00,34.00,100917,1.1995
! <Site Water Mains Temperature Information>,Calculation Method{},Water Mains Temperature Schedule Name{},Annual Average Outdoor Air Temperature{C},Maximum Difference In Monthly Average Outdoor Air Temperatures{deltaC},Fixed Default Water Mains Temperature{C}
Site Water Mains Temperature Information,Correlation,NA,-1.53,36.20,NA
! <Building Information>, Building Name,North Axis {deg},Terrain,  Loads Convergence Tolerance Value,Temperature Convergence Tolerance Value,  Solar Distribution,Maximum Number of Warmup Days,Minimum Number of Warmup Days
 Building Information,DOE Ref 1980-2004|Warehouse,0.000,City,4.00000E-002,0.20000,FullInteriorAndExterior,25,6
! <Inside Convection Algorithm>, Algorithm {Simple | TARP | CeilingDiffuser | AdaptiveConvectionAlgorithm}
Inside Convection Algorithm,TARP
! <Outside Convection Algorithm>, Algorithm {SimpleCombined | TARP | MoWitt | DOE-2 | AdaptiveConvectionAlgorithm}
Outside Convection Algorithm,TARP
! <Sky Radiance Distribution>, Value {Anisotropic}
Sky Radiance Distribution,Anisotropic
! <Zone Air Solution Algorithm>, Value {ThirdOrderBackwardDifference | AnalyticalSolution | EulerMethod}
 Zone Air Solution Algorithm, ThirdOrderBackwardDifference
! <Zone Air Carbon Dioxide Balance Simulation>, Simulation {Yes/No}, Carbon Dioxide Concentration
 Zone Air Carbon Dioxide Balance Simulation, No,N/A
! <Zone Air Generic Contaminant Balance Simulation>, Simulation {Yes/No}, Generic Contaminant Concentration
 Zone Air Generic Contaminant Balance Simulation, No,N/A
! <Zone Air Mass Flow Balance Simulation>, Enforce Mass Balance, Adjust Zone Mixing and Return {AdjustMixingOnly | AdjustReturnOnly | AdjustMixingThenReturn | AdjustReturnThenMixing | None}, Adjust Zone Infiltration {AddInfiltration | AdjustInfiltration | None}, Infiltration Zones {MixingSourceZonesOnly | AllZones}
 Zone Air Mass Flow Balance Simulation, No,N/A,N/A,N/A
! <HVACSystemRootFindingAlgorithm>, Value {RegulaFalsi | Bisection | BisectionThenRegulaFalsi | RegulaFalsiThenBisection}
 HVACSystemRootFindingAlgorithm, RegulaFalsi
! <Environment:Site Atmospheric Variation>,Wind Speed Profile Exponent {},Wind Speed Profile Boundary Layer Thickness {m},Air Temperature Gradient Coefficient {K/m}
Environment:Site Atmospheric Variation,0.330,460.000,6.500000E-003
! <Surface Geometry>,Starting Corner,Vertex Input Direction,Coordinate System,Daylight Reference Point Coordinate System,Rectangular (Simple) Surface Coordinate System
 Surface Geometry,UpperLeftCorner,Counterclockwise,RelativeCoordinateSystem,RelativeCoordinateSystem,RelativeToZoneOrigin
! <Surface Heat Transfer Algorithm>, Value {CTF - ConductionTransferFunction | EMPD - MoisturePenetrationDepthConductionTransferFunction | CondFD - ConductionFiniteDifference | HAMT - CombinedHeatAndMoistureFiniteElement} - Description,Inside Surface Max Temperature Limit{C}, Surface Convection Coefficient Lower Limit {W/m2-K}, Surface Convection Coefficient Upper Limit {W/m2-K}
Surface Heat Transfer Algorithm, CTF - ConductionTransferFunction,200,0.10,1000.0
! <Shading Summary>, Number of Fixed Detached Shades, Number of Building Detached Shades, Number of Attached Shades
 Shading Summary,0,0,0
! <Zone Summary>, Number of Zones, Number of Zone Surfaces, Number of SubSurfaces
 Zone Summary,24,178,28
! <Zone Information>,Zone Name,North Axis {deg},Origin X-Coordinate {m},Origin Y-Coordinate {m},Origin Z-Coordinate {m},Centroid X-Coordinate {m},Centroid Y-Coordinate {m},Centroid Z-Coordinate {m},Type,Zone Multiplier,Zone List Multiplier,Minimum X {m},Maximum X {m},Minimum Y {m},Maximum Y {m},Minimum Z {m},Maximum Z {m},Ceiling Height {m},Volume {m3},Zone Inside Convection Algorithm {Simple-Detailed-CeilingDiffuser-TrombeWall},Zone Outside Convection Algorithm {Simple-Detailed-Tarp-MoWitt-DOE-2-BLAST}, Floor Area {m2},Exterior Gross Wall Area {m2},Exterior Net Wall Area {m2},Exterior Window Area {m2}, Number of Surfaces, Number of SubSurfaces, Number of Shading SubSurfaces,  Part of Total Building Area
 Zone Information, ZONE WAREHOUSE BULK A  - STORY GROUND,0.0,13.76,-26.29,0.00,24.31,-24.00,3.51,1,1,1,13.76,34.86,-26.29,-21.72,0.00,7.01,7.01,676.57,TARP,TARP,96.51,147.98,125.78,22.20,6,1,0,Yes
 Zone Information, ZONE WAREHOUSE BULK A  - STORY TOP,0.0,-34.86,-26.29,7.01,8.40E-016,-24.00,10.52,1,1,1,-34.86,34.86,-26.29,-21.72,7.01,14.02,7.01,2234.89,TARP,TARP,318.80,488.82,415.50,73.32,8,1,0,Yes
 Zone Information, ZONE WAREHOUSE BULK A END_A - STORY TOP,0.0,-39.44,-26.29,7.01,-37.15,-24.00,10.52,1,1,1,-39.44,-34.86,-26.29,-21.72,7.01,14.02,7.01,146.54,TARP,TARP,20.90,64.10,54.49,9.62,6,2,0,Yes
 Zone Information, ZONE WAREHOUSE BULK A END_B - STORY GROUND,0.0,34.86,-26.29,0.00,37.15,-24.00,3.51,1,1,1,34.86,39.44,-26.29,-21.72,0.00,7.01,7.01,146.54,TARP,TARP,20.90,64.10,54.49,9.62,6,2,0,Yes
 Zone Information, ZONE WAREHOUSE BULK A END_B - STORY TOP,0.0,34.86,-26.29,7.01,37.15,-24.00,10.52,1,1,1,34.86,39.44,-26.29,-21.72,7.01,14.02,7.01,146.54,TARP,TARP,20.90,64.10,54.49,9.62,6,2,0,Yes
 Zone Information, ZONE WAREHOUSE BULK B  - STORY GROUND,0.0,13.76,-21.72,0.00,24.31,-1.57E-014,3.51,1,1,1,13.76,34.86,-21.72,21.72,0.00,7.01,7.01,6427.88,TARP,TARP,916.91,0.00,0.00,0.00,6,0,0,Yes
 Zone Information, ZONE WAREHOUSE BULK B  - STORY TOP,0.0,-34.86,-21.72,7.01,-5.45E-017,-1.61E-014,10.52,1,1,1,-34.86,34.86,-21.72,21.72,7.01,14.02,7.01,21233.07,TARP,TARP,3028.80,0.00,0.00,0.00,8,0,0,Yes
 Zone Information, ZONE WAREHOUSE BULK B END_A - STORY TOP,0.0,-39.44,-21.72,7.01,-37.15,-1.49E-014,10.52,1,1,1,-39.44,-34.86,-21.72,21.72,7.01,14.02,7.01,1392.23,TARP,TARP,198.60,304.51,258.84,45.68,6,1,0,Yes
 Zone Information, ZONE WAREHOUSE BULK B END_B - STORY GROUND,0.0,34.86,-21.72,0.00,37.15,-1.50E-014,3.51,1,1,1,34.86,39.44,-21.72,21.72,0.00,7.01,7.01,1392.23,TARP,TARP,198.60,304.51,258.84,45.68,6,1,0,Yes
 Zone Information, ZONE WAREHOUSE BULK B END_B - STORY TOP,0.0,34.86,-21.72,7.01,37.15,-1.50E-014,10.52,1,1,1,34.86,39.44,-21.72,21.72,7.01,14.02,7.01,1392.23,TARP,TARP,198.60,304.51,258.84,45.68,6,1,0,Yes
 Zone Information, ZONE WAREHOUSE BULK C  - STORY GROUND,0.0,13.76,21.72,0.00,24.31,24.00,3.51,1,1,1,13.76,34.86,21.72,26.29,0.00,7.01,7.01,676.57,TARP,TARP,96.51,147.98,125.78,22.20,6,1,0,Yes
 Zone Information, ZONE WAREHOUSE BULK C  - STORY TOP,0.0,-34.86,21.72,7.01,-8.46E-016,24.00,10.52,1,1,1,-34.86,34.86,21.72,26.29,7.01,14.02,7.01,2234.89,TARP,TARP,318.80,488.82,415.50,73.32,8,1,0,Yes
 Zone Information, ZONE WAREHOUSE BULK C END_A - STORY TOP,0.0,-39.44,21.72,7.01,-37.15,24.00,10.52,1,1,1,-39.44,-34.86,21.72,26.29,7.01,14.02,7.01,146.54,TARP,TARP,20.90,64.10,54.49,9.62,6,2,0,Yes
 Zone Information, ZONE WAREHOUSE BULK C END_B - STORY GROUND,0.0,34.86,21.72,0.00,37.15,24.00,3.51,1,1,1,34.86,39.44,21.72,26.29,0.00,7.01,7.01,146.54,TARP,TARP,20.90,64.10,54.49,9.62,6,2,0,Yes
 Zone Information, ZONE WAREHOUSE BULK C END_B - STORY TOP,0.0,34.86,21.72,7.01,37.15,24.00,10.52,1,1,1,34.86,39.44,21.72,26.29,7.01,14.02,7.01,146.54,TARP,TARP,20.90,64.10,54.49,9.62,6,2,0,Yes
 Zone Information, ZONE WAREHOUSE FINE A  - STORY GROUND,0.0,-34.86,-26.29,0.00,-14.42,-24.00,3.51,1,1,1,-34.86,6.03,-26.29,-21.72,0.00,7.01,7.01,1310.58,TARP,TARP,186.95,286.65,243.66,43.00,6,1,0,Yes
 Zone Information, ZONE WAREHOUSE FINE A END_A - STORY GROUND,0.0,-39.44,-26.29,0.00,-37.15,-24.00,3.51,1,1,1,-39.44,-34.86,-26.29,-21.72,0.00,7.01,7.01,146.54,TARP,TARP,20.90,64.10,54.49,9.62,6,2,0,Yes
 Zone Information, ZONE WAREHOUSE FINE B  - STORY GROUND,0.0,-34.86,-21.72,0.00,-14.42,-1.55E-014,3.51,1,1,1,-34.86,6.03,-21.72,21.72,0.00,7.01,7.01,12451.47,TARP,TARP,1776.14,0.00,0.00,0.00,6,0,0,Yes
 Zone Information, ZONE WAREHOUSE FINE B END_A - STORY GROUND,0.0,-39.44,-21.72,0.00,-37.15,-1.50E-014,3.51,1,1,1,-39.44,-34.86,-21.72,21.72,0.00,7.01,7.01,1392.23,TARP,TARP,198.60,304.51,258.84,45.68,6,1,0,Yes
 Zone Information, ZONE WAREHOUSE FINE C  - STORY GROUND,0.0,-34.86,21.72,0.00,-14.42,24.00,3.51,1,1,1,-34.86,6.03,21.72,26.29,0.00,7.01,7.01,1310.58,TARP,TARP,186.95,286.65,243.66,43.00,6,1,0,Yes
 Zone Information, ZONE WAREHOUSE FINE C END_A - STORY GROUND,0.0,-39.44,21.72,0.00,-37.15,24.00,3.51,1,1,1,-39.44,-34.86,21.72,26.29,0.00,7.01,7.01,146.54,TARP,TARP,20.90,64.10,54.49,9.62,6,2,0,Yes
 Zone Information, ZONE WAREHOUSE OFFICE A  - STORY GROUND,0.0,6.03,-26.29,0.00,9.89,-24.00,3.51,1,1,1,6.03,13.76,-26.29,-21.72,0.00,7.01,7.01,247.74,TARP,TARP,35.34,54.19,46.06,8.13,6,1,0,Yes
 Zone Information, ZONE WAREHOUSE OFFICE B  - STORY GROUND,0.0,6.03,-21.72,0.00,9.89,-1.63E-014,3.51,1,1,1,6.03,13.76,-21.72,21.72,0.00,7.01,7.01,2353.72,TARP,TARP,335.75,0.00,0.00,0.00,6,0,0,Yes
 Zone Information, ZONE WAREHOUSE OFFICE C  - STORY GROUND,0.0,6.03,21.72,0.00,9.89,24.00,3.51,1,1,1,6.03,13.76,21.72,26.29,0.00,7.01,7.01,247.74,TARP,TARP,35.34,54.19,46.06,8.13,6,1,0,Yes
! <Zone Internal Gains Nominal>,Zone Name, Floor Area {m2},# Occupants,Area per Occupant {m2/person},Occupant per Area {person/m2},Interior Lighting {W/m2},Electric Load {W/m2},Gas Load {W/m2},Other Load {W/m2},Hot Water Eq {W/m2},Steam Equipment {W/m2},Sum Loads per Area {W/m2},Outdoor Controlled Baseboard Heat
 Zone Internal Gains Nominal, ZONE WAREHOUSE BULK A  - STORY GROUND,96.51,0.0,N/A,0.000,3.340,2.560,0.000,0.000,0.000,0.000,5.900,No
 Zone Internal Gains Nominal, ZONE WAREHOUSE BULK A  - STORY TOP,318.80,0.0,N/A,0.000,3.340,2.560,0.000,0.000,0.000,0.000,5.900,No
 Zone Internal Gains Nominal, ZONE WAREHOUSE BULK A END_A - STORY TOP,20.90,0.0,N/A,0.000,3.340,2.560,0.000,0.000,0.000,0.000,5.900,No
 Zone Internal Gains Nominal, ZONE WAREHOUSE BULK A END_B - STORY GROUND,20.90,0.0,N/A,0.000,3.340,2.560,0.000,0.000,0.000,0.000,5.900,No
 Zone Internal Gains Nominal, ZONE WAREHOUSE BULK A END_B - STORY TOP,20.90,0.0,N/A,0.000,3.340,2.560,0.000,0.000,0.000,0.000,5.900,No
 Zone Internal Gains Nominal, ZONE WAREHOUSE BULK B  - STORY GROUND,916.91,0.0,N/A,0.000,3.340,2.560,0.000,0.000,0.000,0.000,5.900,No
 Zone Internal Gains Nominal, ZONE WAREHOUSE BULK B  - STORY TOP,3028.80,0.0,N/A,0.000,3.340,2.560,0.000,0.000,0.000,0.000,5.900,No
 Zone Internal Gains Nominal, ZONE WAREHOUSE BULK B END_A - STORY TOP,198.60,0.0,N/A,0.000,3.340,2.560,0.000,0.000,0.000,0.000,5.900,No
 Zone Internal Gains Nominal, ZONE WAREHOUSE BULK B END_B - STORY GROUND,198.60,0.0,N/A,0.000,3.340,2.560,0.000,0.000,0.000,0.000,5.900,No
 Zone Internal Gains Nominal, ZONE WAREHOUSE BULK B END_B - STORY TOP,198.60,0.0,N/A,0.000,3.340,2.560,0.000,0.000,0.000,0.000,5.900,No
 Zone Internal Gains Nominal, ZONE WAREHOUSE BULK C  - STORY GROUND,96.51,0.0,N/A,0.000,3.340,2.560,0.000,0.000,0.000,0.000,5.900,No
 Zone Internal Gains Nominal, ZONE WAREHOUSE BULK C  - STORY TOP,318.80,0.0,N/A,0.000,3.340,2.560,0.000,0.000,0.000,0.000,5.900,No
 Zone Internal Gains Nominal, ZONE WAREHOUSE BULK C END_A - STORY TOP,20.90,0.0,N/A,0.000,3.340,2.560,0.000,0.000,0.000,0.000,5.900,No
 Zone Internal Gains Nominal, ZONE WAREHOUSE BULK C END_B - STORY GROUND,20.90,0.0,N/A,0.000,3.340,2.560,0.000,0.000,0.000,0.000,5.900,No
 Zone Internal Gains Nominal, ZONE WAREHOUSE BULK C END_B - STORY TOP,20.90,0.0,N/A,0.000,3.340,2.560,0.000,0.000,0.000,0.000,5.900,No
 Zone Internal Gains Nominal, ZONE WAREHOUSE FINE A  - STORY GROUND,186.95,0.0,N/A,0.000,11.640,0.000,0.000,0.000,0.000,0.000,11.640,No
 Zone Internal Gains Nominal, ZONE WAREHOUSE FINE A END_A - STORY GROUND,20.90,0.0,N/A,0.000,11.640,0.000,0.000,0.000,0.000,0.000,11.640,No
 Zone Internal Gains Nominal, ZONE WAREHOUSE FINE B  - STORY GROUND,1776.14,0.0,N/A,0.000,11.640,0.000,0.000,0.000,0.000,0.000,11.640,No
 Zone Internal Gains Nominal, ZONE WAREHOUSE FINE B END_A - STORY GROUND,198.60,0.0,N/A,0.000,11.640,0.000,0.000,0.000,0.000,0.000,11.640,No
 Zone Internal Gains Nominal, ZONE WAREHOUSE FINE C  - STORY GROUND,186.95,0.0,N/A,0.000,11.640,0.000,0.000,0.000,0.000,0.000,11.640,No
 Zone Internal Gains Nominal, ZONE WAREHOUSE FINE C END_A - STORY GROUND,20.90,0.0,N/A,0.000,11.640,0.000,0.000,0.000,0.000,0.000,11.640,No
 Zone Internal Gains Nominal, ZONE WAREHOUSE OFFICE A  - STORY GROUND,35.34,0.7,47.400,2.110E-002,21.690,8.070,0.000,0.000,0.000,0.000,29.760,No
 Zone Internal Gains Nominal, ZONE WAREHOUSE OFFICE B  - STORY GROUND,335.75,7.1,47.400,2.110E-002,21.690,8.070,0.000,0.000,0.000,0.000,29.760,No
 Zone Internal Gains Nominal, ZONE WAREHOUSE OFFICE C  - STORY GROUND,35.34,0.7,47.400,2.110E-002,21.690,8.070,0.000,0.000,0.000,0.000,29.760,No
! <People Internal Gains Nominal>,Name,Schedule Name,Zone Name,Zone Floor Area {m2},# Zone Occupants,Number of People {},People/Floor Area {person/m2},Floor Area per person {m2/person},Fraction Radiant,Fraction Convected,Sensible Fraction Calculation,Activity level,ASHRAE 55 Warnings,Carbon Dioxide Generation Rate,Nominal Minimum Number of People,Nominal Maximum Number of People
 People Internal Gains Nominal, WAREHOUSE OFFICE A  - STORY GROUND WAREHOUSE OFFICE PEOPLE,WAREHOUSE BLDG OCC,ZONE WAREHOUSE OFFICE A  - STORY GROUND,35.34,0.7,0.7,2.110E-002,47.400,0.300,0.700,AutoCalculate,WAREHOUSE ACTIVITY,No,3.8200E-008,0,1
 People Internal Gains Nominal, WAREHOUSE OFFICE B  - STORY GROUND WAREHOUSE OFFICE PEOPLE,WAREHOUSE BLDG OCC,ZONE WAREHOUSE OFFICE B  - STORY GROUND,335.75,7.1,7.1,2.110E-002,47.400,0.300,0.700,AutoCalculate,WAREHOUSE ACTIVITY,No,3.8200E-008,0,7
 People Internal Gains Nominal, WAREHOUSE OFFICE C  - STORY GROUND WAREHOUSE OFFICE PEOPLE,WAREHOUSE BLDG OCC,ZONE WAREHOUSE OFFICE C  - STORY GROUND,35.34,0.7,0.7,2.110E-002,47.400,0.300,0.700,AutoCalculate,WAREHOUSE ACTIVITY,No,3.8200E-008,0,1
! <Lights Internal Gains Nominal>,Name,Schedule Name,Zone Name,Zone Floor Area {m2},# Zone Occupants,Lighting Level {W},Lights/Floor Area {W/m2},Lights per person {W/person},Fraction Return Air,Fraction Radiant,Fraction Short Wave,Fraction Convected,Fraction Replaceable,End-Use Category,Nominal Minimum Lighting Level {W},Nominal Maximum Lighting Level {W}
 Lights Internal Gains Nominal, WAREHOUSE BULK A  - STORY TOP WAREHOUSE BULK LIGHTS,WAREHOUSE BLDG LIGHT,ZONE WAREHOUSE BULK A  - STORY TOP,318.80,0.0,1064.780,3.340,N/A,0.000,0.500,0.200,0.300,0.000,General,0.000,1064.780
 Lights Internal Gains Nominal, WAREHOUSE BULK A  - STORY GROUND WAREHOUSE BULK LIGHTS,WAREHOUSE BLDG LIGHT,ZONE WAREHOUSE BULK A  - STORY GROUND,96.51,0.0,322.340,3.340,N/A,0.000,0.500,0.200,0.300,0.000,General,0.000,322.340
 Lights Internal Gains Nominal, WAREHOUSE BULK B  - STORY GROUND WAREHOUSE BULK LIGHTS,WAREHOUSE BLDG LIGHT,ZONE WAREHOUSE BULK B  - STORY GROUND,916.91,0.0,3062.466,3.340,N/A,0.000,0.500,0.200,0.300,0.000,General,0.000,3062.466
 Lights Internal Gains Nominal, WAREHOUSE BULK B  - STORY TOP WAREHOUSE BULK LIGHTS,WAREHOUSE BLDG LIGHT,ZONE WAREHOUSE BULK B  - STORY TOP,3028.80,0.0,10116.179,3.340,N/A,0.000,0.500,0.200,0.300,0.000,General,0.000,10116.179
 Lights Internal Gains Nominal, WAREHOUSE BULK C END_A - STORY TOP WAREHOUSE BULK LIGHTS,WAREHOUSE BLDG LIGHT,ZONE WAREHOUSE BULK C END_A - STORY TOP,20.90,0.0,69.817,3.340,N/A,0.000,0.500,0.200,0.300,0.000,General,0.000,69.817
 Lights Internal Gains Nominal, WAREHOUSE BULK C  - STORY GROUND WAREHOUSE BULK LIGHTS,WAREHOUSE BLDG LIGHT,ZONE WAREHOUSE BULK C  - STORY GROUND,96.51,0.0,322.340,3.340,N/A,0.000,0.500,0.200,0.300,0.000,General,0.000,322.340
 Lights Internal Gains Nominal, WAREHOUSE BULK A END_B - STORY GROUND WAREHOUSE BULK LIGHTS,WAREHOUSE BLDG LIGHT,ZONE WAREHOUSE BULK A END_B - STORY GROUND,20.90,0.0,69.817,3.340,N/A,0.000,0.500,0.200,0.300,0.000,General,0.000,69.817
 Lights Internal Gains Nominal, WAREHOUSE BULK B END_B - STORY GROUND WAREHOUSE BULK LIGHTS,WAREHOUSE BLDG LIGHT,ZONE WAREHOUSE BULK B END_B - STORY GROUND,198.60,0.0,663.309,3.340,N/A,0.000,0.500,0.200,0.300,0.000,General,0.000,663.309
 Lights Internal Gains Nominal, WAREHOUSE BULK C END_B - STORY GROUND WAREHOUSE BULK LIGHTS,WAREHOUSE BLDG LIGHT,ZONE WAREHOUSE BULK C END_B - STORY GROUND,20.90,0.0,69.817,3.340,N/A,0.000,0.500,0.200,0.300,0.000,General,0.000,69.817
 Lights Internal Gains Nominal, WAREHOUSE BULK B END_A - STORY TOP WAREHOUSE BULK LIGHTS,WAREHOUSE BLDG LIGHT,ZONE WAREHOUSE BULK B END_A - STORY TOP,198.60,0.0,663.309,3.340,N/A,0.000,0.500,0.200,0.300,0.000,General,0.000,663.309
 Lights Internal Gains Nominal, WAREHOUSE BULK B END_B - STORY TOP WAREHOUSE BULK LIGHTS,WAREHOUSE BLDG LIGHT,ZONE WAREHOUSE BULK B END_B - STORY TOP,198.60,0.0,663.309,3.340,N/A,0.000,0.500,0.200,0.300,0.000,General,0.000,663.309
 Lights Internal Gains Nominal, WAREHOUSE BULK C  - STORY TOP WAREHOUSE BULK LIGHTS,WAREHOUSE BLDG LIGHT,ZONE WAREHOUSE BULK C  - STORY TOP,318.80,0.0,1064.780,3.340,N/A,0.000,0.500,0.200,0.300,0.000,General,0.000,1064.780
 Lights Internal Gains Nominal, WAREHOUSE BULK C END_B - STORY TOP WAREHOUSE BULK LIGHTS,WAREHOUSE BLDG LIGHT,ZONE WAREHOUSE BULK C END_B - STORY TOP,20.90,0.0,69.817,3.340,N/A,0.000,0.500,0.200,0.300,0.000,General,0.000,69.817
 Lights Internal Gains Nominal, WAREHOUSE BULK A END_A - STORY TOP WAREHOUSE BULK LIGHTS,WAREHOUSE BLDG LIGHT,ZONE WAREHOUSE BULK A END_A - STORY TOP,20.90,0.0,69.817,3.340,N/A,0.000,0.500,0.200,0.300,0.000,General,0.000,69.817
 Lights Internal Gains Nominal, WAREHOUSE BULK A END_B - STORY TOP WAREHOUSE BULK LIGHTS,WAREHOUSE BLDG LIGHT,ZONE WAREHOUSE BULK A END_B - STORY TOP,20.90,0.0,69.817,3.340,N/A,0.000,0.500,0.200,0.300,0.000,General,0.000,69.817
 Lights Internal Gains Nominal, WAREHOUSE FINE A END_A - STORY GROUND WAREHOUSE FINE LIGHTS,WAREHOUSE BLDG LIGHT,ZONE WAREHOUSE FINE A END_A - STORY GROUND,20.90,0.0,243.313,11.640,N/A,0.000,0.500,0.200,0.300,0.000,General,0.000,243.313
 Lights Internal Gains Nominal, WAREHOUSE FINE C  - STORY GROUND WAREHOUSE FINE LIGHTS,WAREHOUSE BLDG LIGHT,ZONE WAREHOUSE FINE C  - STORY GROUND,186.95,0.0,2176.077,11.640,N/A,0.000,0.500,0.200,0.300,0.000,General,0.000,2176.077
 Lights Internal Gains Nominal, WAREHOUSE FINE B  - STORY GROUND WAREHOUSE FINE LIGHTS,WAREHOUSE BLDG LIGHT,ZONE WAREHOUSE FINE B  - STORY GROUND,1776.14,0.0,20674.307,11.640,N/A,0.000,0.500,0.200,0.300,0.000,General,0.000,20674.307
 Lights Internal Gains Nominal, WAREHOUSE FINE C END_A - STORY GROUND WAREHOUSE FINE LIGHTS,WAREHOUSE BLDG LIGHT,ZONE WAREHOUSE FINE C END_A - STORY GROUND,20.90,0.0,243.313,11.640,N/A,0.000,0.500,0.200,0.300,0.000,General,0.000,243.313
 Lights Internal Gains Nominal, WAREHOUSE FINE B END_A - STORY GROUND WAREHOUSE FINE LIGHTS,WAREHOUSE BLDG LIGHT,ZONE WAREHOUSE FINE B END_A - STORY GROUND,198.60,0.0,2311.650,11.640,N/A,0.000,0.500,0.200,0.300,0.000,General,0.000,2311.650
 Lights Internal Gains Nominal, WAREHOUSE FINE A  - STORY GROUND WAREHOUSE FINE LIGHTS,WAREHOUSE BLDG LIGHT,ZONE WAREHOUSE FINE A  - STORY GROUND,186.95,0.0,2176.077,11.640,N/A,0.000,0.500,0.200,0.300,0.000,General,0.000,2176.077
 Lights Internal Gains Nominal, WAREHOUSE OFFICE A  - STORY GROUND WAREHOUSE OFFICE LIGHTS,WAREHOUSE BLDG LIGHT,ZONE WAREHOUSE OFFICE A  - STORY GROUND,35.34,0.7,766.504,21.690,1028.095,0.000,0.500,0.200,0.300,0.000,General,0.000,766.504
 Lights Internal Gains Nominal, WAREHOUSE OFFICE B  - STORY GROUND WAREHOUSE OFFICE LIGHTS,WAREHOUSE BLDG LIGHT,ZONE WAREHOUSE OFFICE B  - STORY GROUND,335.75,7.1,7282.345,21.690,1028.095,0.000,0.500,0.200,0.300,0.000,General,0.000,7282.345
 Lights Internal Gains Nominal, WAREHOUSE OFFICE C  - STORY GROUND WAREHOUSE OFFICE LIGHTS,WAREHOUSE BLDG LIGHT,ZONE WAREHOUSE OFFICE C  - STORY GROUND,35.34,0.7,766.504,21.690,1028.095,0.000,0.500,0.200,0.300,0.000,General,0.000,766.504
! <ElectricEquipment Internal Gains Nominal>,Name,Schedule Name,Zone Name,Zone Floor Area {m2},# Zone Occupants,Equipment Level {W},Equipment/Floor Area {W/m2},Equipment per person {W/person},Fraction Latent,Fraction Radiant,Fraction Lost,Fraction Convected,End-Use SubCategory,Nominal Minimum Equipment Level {W},Nominal Maximum Equipment Level {W}
 ElectricEquipment Internal Gains Nominal, WAREHOUSE BULK A  - STORY TOP WAREHOUSE BULK ELEC EQUIP,WAREHOUSE BLDG EQUIP,ZONE WAREHOUSE BULK A  - STORY TOP,318.80,0.0,816.119,2.560,N/A,0.000,0.500,0.000,0.500,General,0.000,816.119
 ElectricEquipment Internal Gains Nominal, WAREHOUSE BULK A  - STORY GROUND WAREHOUSE BULK ELEC EQUIP,WAREHOUSE BLDG EQUIP,ZONE WAREHOUSE BULK A  - STORY GROUND,96.51,0.0,247.063,2.560,N/A,0.000,0.500,0.000,0.500,General,0.000,247.063
 ElectricEquipment Internal Gains Nominal, WAREHOUSE BULK B  - STORY GROUND WAREHOUSE BULK ELEC EQUIP,WAREHOUSE BLDG EQUIP,ZONE WAREHOUSE BULK B  - STORY GROUND,916.91,0.0,2347.279,2.560,N/A,0.000,0.500,0.000,0.500,General,0.000,2347.279
 ElectricEquipment Internal Gains Nominal, WAREHOUSE BULK B  - STORY TOP WAREHOUSE BULK ELEC EQUIP,WAREHOUSE BLDG EQUIP,ZONE WAREHOUSE BULK B  - STORY TOP,3028.80,0.0,7753.717,2.560,N/A,0.000,0.500,0.000,0.500,General,0.000,7753.717
 ElectricEquipment Internal Gains Nominal, WAREHOUSE BULK C END_A - STORY TOP WAREHOUSE BULK ELEC EQUIP,WAREHOUSE BLDG EQUIP,ZONE WAREHOUSE BULK C END_A - STORY TOP,20.90,0.0,53.512,2.560,N/A,0.000,0.500,0.000,0.500,General,0.000,53.512
 ElectricEquipment Internal Gains Nominal, WAREHOUSE BULK C  - STORY GROUND WAREHOUSE BULK ELEC EQUIP,WAREHOUSE BLDG EQUIP,ZONE WAREHOUSE BULK C  - STORY GROUND,96.51,0.0,247.063,2.560,N/A,0.000,0.500,0.000,0.500,General,0.000,247.063
 ElectricEquipment Internal Gains Nominal, WAREHOUSE BULK A END_B - STORY GROUND WAREHOUSE BULK ELEC EQUIP,WAREHOUSE BLDG EQUIP,ZONE WAREHOUSE BULK A END_B - STORY GROUND,20.90,0.0,53.512,2.560,N/A,0.000,0.500,0.000,0.500,General,0.000,53.512
 ElectricEquipment Internal Gains Nominal, WAREHOUSE BULK B END_B - STORY GROUND WAREHOUSE BULK ELEC EQUIP,WAREHOUSE BLDG EQUIP,ZONE WAREHOUSE BULK B END_B - STORY GROUND,198.60,0.0,508.404,2.560,N/A,0.000,0.500,0.000,0.500,General,0.000,508.404
 ElectricEquipment Internal Gains Nominal, WAREHOUSE BULK C END_B - STORY GROUND WAREHOUSE BULK ELEC EQUIP,WAREHOUSE BLDG EQUIP,ZONE WAREHOUSE BULK C END_B - STORY GROUND,20.90,0.0,53.512,2.560,N/A,0.000,0.500,0.000,0.500,General,0.000,53.512
 ElectricEquipment Internal Gains Nominal, WAREHOUSE BULK B END_A - STORY TOP WAREHOUSE BULK ELEC EQUIP,WAREHOUSE BLDG EQUIP,ZONE WAREHOUSE BULK B END_A - STORY TOP,198.60,0.0,508.404,2.560,N/A,0.000,0.500,0.000,0.500,General,0.000,508.404
 ElectricEquipment Internal Gains Nominal, WAREHOUSE BULK B END_B - STORY TOP WAREHOUSE BULK ELEC EQUIP,WAREHOUSE BLDG EQUIP,ZONE WAREHOUSE BULK B END_B - STORY TOP,198.60,0.0,508.404,2.560,N/A,0.000,0.500,0.000,0.500,General,0.000,508.404
 ElectricEquipment Internal Gains Nominal, WAREHOUSE BULK C  - STORY TOP WAREHOUSE BULK ELEC EQUIP,WAREHOUSE BLDG EQUIP,ZONE WAREHOUSE BULK C  - STORY TOP,318.80,0.0,816.119,2.560,N/A,0.000,0.500,0.000,0.500,General,0.000,816.119
 ElectricEquipment Internal Gains Nominal, WAREHOUSE BULK C END_B - STORY TOP WAREHOUSE BULK ELEC EQUIP,WAREHOUSE BLDG EQUIP,ZONE WAREHOUSE BULK C END_B - STORY TOP,20.90,0.0,53.512,2.560,N/A,0.000,0.500,0.000,0.500,General,0.000,53.512
 ElectricEquipment Internal Gains Nominal, WAREHOUSE BULK A END_A - STORY TOP WAREHOUSE BULK ELEC EQUIP,WAREHOUSE BLDG EQUIP,ZONE WAREHOUSE BULK A END_A - STORY TOP,20.90,0.0,53.512,2.560,N/A,0.000,0.500,0.000,0.500,General,0.000,53.512
 ElectricEquipment Internal Gains Nominal, WAREHOUSE BULK A END_B - STORY TOP WAREHOUSE BULK ELEC EQUIP,WAREHOUSE BLDG EQUIP,ZONE WAREHOUSE BULK A END_B - STORY TOP,20.90,0.0,53.512,2.560,N/A,0.000,0.500,0.000,0.500,General,0.000,53.512
 ElectricEquipment Internal Gains Nominal, WAREHOUSE OFFICE A  - STORY GROUND WAREHOUSE OFFICE ELEC EQUIP,WAREHOUSE BLDG EQUIP,ZONE WAREHOUSE OFFICE A  - STORY GROUND,35.34,0.7,285.186,8.070,382.514,0.000,0.500,0.000,0.500,General,0.000,285.186
 ElectricEquipment Internal Gains Nominal, WAREHOUSE OFFICE B  - STORY GROUND WAREHOUSE OFFICE ELEC EQUIP,WAREHOUSE BLDG EQUIP,ZONE WAREHOUSE OFFICE B  - STORY GROUND,335.75,7.1,2709.475,8.070,382.514,0.000,0.500,0.000,0.500,General,0.000,2709.475
 ElectricEquipment Internal Gains Nominal, WAREHOUSE OFFICE C  - STORY GROUND WAREHOUSE OFFICE ELEC EQUIP,WAREHOUSE BLDG EQUIP,ZONE WAREHOUSE OFFICE C  - STORY GROUND,35.34,0.7,285.186,8.070,382.514,0.000,0.500,0.000,0.500,General,0.000,285.186
! <Shadowing/Sun Position Calculations Annual Simulations>, Shading Calculation Method, Shading Calculation Update Frequency Method, Shading Calculation Update Frequency {days}, Maximum Figures in Shadow Overlap Calculations {}, Polygon Clipping Algorithm, Pixel Counting Resolution, Sky Diffuse Modeling Algorithm, Output External Shading Calculation Results, Disable Self-Shading Within Shading Zone Groups, Disable Self-Shading From Shading Zone Groups to Other Zones
Shadowing/Sun Position Calculations Annual Simulations,PolygonClipping,Periodic,30,15000,SutherlandHodgman,512,SimpleSkyDiffuseModeling,No,No,No
! <Water Heater Information>,Type,Name,Volume {m3},Maximum Capacity {W},Standard Rated Recovery Efficiency, Standard Rated Energy Factor
! <ZoneInfiltration Airflow Stats Nominal>,Name,Schedule Name,Zone Name, Zone Floor Area {m2}, # Zone Occupants,Design Volume Flow Rate {m3/s},Volume Flow Rate/Floor Area {m3/s-m2},Volume Flow Rate/Exterior Surface Area {m3/s-m2},ACH - Air Changes per Hour,Equation A - Constant Term Coefficient {},Equation B - Temperature Term Coefficient {1/C},Equation C - Velocity Term Coefficient {s/m}, Equation D - Velocity Squared Term Coefficient {s2/m2}
 ZoneInfiltration Airflow Stats Nominal, WAREHOUSE BULK A  - STORY GROUND INFILTRATION,ALWAYS ON DISCRETE,ZONE WAREHOUSE BULK A  - STORY GROUND,96.51,0.0,0.152,1.572E-003,1.025E-003,0.807,1.000,0.000,0.000,0.000
 ZoneInfiltration Airflow Stats Nominal, WAREHOUSE BULK A  - STORY TOP INFILTRATION,ALWAYS ON DISCRETE,ZONE WAREHOUSE BULK A  - STORY TOP,318.80,0.0,0.501,1.572E-003,6.205E-004,0.807,1.000,0.000,0.000,0.000
 ZoneInfiltration Airflow Stats Nominal, WAREHOUSE BULK A END_A - STORY TOP INFILTRATION,ALWAYS ON DISCRETE,ZONE WAREHOUSE BULK A END_A - STORY TOP,20.90,0.0,6.572E-002,3.144E-003,7.731E-004,1.615,1.000,0.000,0.000,0.000
 ZoneInfiltration Airflow Stats Nominal, WAREHOUSE BULK A END_B - STORY GROUND INFILTRATION,ALWAYS ON DISCRETE,ZONE WAREHOUSE BULK A END_B - STORY GROUND,20.90,0.0,6.572E-002,3.144E-003,1.025E-003,1.615,1.000,0.000,0.000,0.000
 ZoneInfiltration Airflow Stats Nominal, WAREHOUSE BULK A END_B - STORY TOP INFILTRATION,ALWAYS ON DISCRETE,ZONE WAREHOUSE BULK A END_B - STORY TOP,20.90,0.0,6.572E-002,3.144E-003,7.731E-004,1.615,1.000,0.000,0.000,0.000
 ZoneInfiltration Airflow Stats Nominal, WAREHOUSE BULK B END_A - STORY TOP INFILTRATION,ALWAYS ON DISCRETE,ZONE WAREHOUSE BULK B END_A - STORY TOP,198.60,0.0,0.312,1.572E-003,6.205E-004,0.807,1.000,0.000,0.000,0.000
 ZoneInfiltration Airflow Stats Nominal, WAREHOUSE BULK B END_B - STORY GROUND INFILTRATION,ALWAYS ON DISCRETE,ZONE WAREHOUSE BULK B END_B - STORY GROUND,198.60,0.0,0.312,1.572E-003,1.025E-003,0.807,1.000,0.000,0.000,0.000
 ZoneInfiltration Airflow Stats Nominal, WAREHOUSE BULK B END_B - STORY TOP INFILTRATION,ALWAYS ON DISCRETE,ZONE WAREHOUSE BULK B END_B - STORY TOP,198.60,0.0,0.312,1.572E-003,6.205E-004,0.807,1.000,0.000,0.000,0.000
 ZoneInfiltration Airflow Stats Nominal, WAREHOUSE BULK C  - STORY GROUND INFILTRATION,ALWAYS ON DISCRETE,ZONE WAREHOUSE BULK C  - STORY GROUND,96.51,0.0,0.152,1.572E-003,1.025E-003,0.807,1.000,0.000,0.000,0.000
 ZoneInfiltration Airflow Stats Nominal, WAREHOUSE BULK C  - STORY TOP INFILTRATION,ALWAYS ON DISCRETE,ZONE WAREHOUSE BULK C  - STORY TOP,318.80,0.0,0.501,1.572E-003,6.205E-004,0.807,1.000,0.000,0.000,0.000
 ZoneInfiltration Airflow Stats Nominal, WAREHOUSE BULK C END_A - STORY TOP INFILTRATION,ALWAYS ON DISCRETE,ZONE WAREHOUSE BULK C END_A - STORY TOP,20.90,0.0,6.572E-002,3.144E-003,7.731E-004,1.615,1.000,0.000,0.000,0.000
 ZoneInfiltration Airflow Stats Nominal, WAREHOUSE BULK C END_B - STORY GROUND INFILTRATION,ALWAYS ON DISCRETE,ZONE WAREHOUSE BULK C END_B - STORY GROUND,20.90,0.0,6.572E-002,3.144E-003,1.025E-003,1.615,1.000,0.000,0.000,0.000
 ZoneInfiltration Airflow Stats Nominal, WAREHOUSE BULK C END_B - STORY TOP INFILTRATION,ALWAYS ON DISCRETE,ZONE WAREHOUSE BULK C END_B - STORY TOP,20.90,0.0,6.572E-002,3.144E-003,7.731E-004,1.615,1.000,0.000,0.000,0.000
 ZoneInfiltration Airflow Stats Nominal, WAREHOUSE FINE A  - STORY GROUND INFILTRATION,ALWAYS ON DISCRETE,ZONE WAREHOUSE FINE A  - STORY GROUND,186.95,0.0,0.294,1.572E-003,1.025E-003,0.807,1.000,0.000,0.000,0.000
 ZoneInfiltration Airflow Stats Nominal, WAREHOUSE FINE A END_A - STORY GROUND INFILTRATION,ALWAYS ON DISCRETE,ZONE WAREHOUSE FINE A END_A - STORY GROUND,20.90,0.0,6.572E-002,3.144E-003,1.025E-003,1.615,1.000,0.000,0.000,0.000
 ZoneInfiltration Airflow Stats Nominal, WAREHOUSE FINE B END_A - STORY GROUND INFILTRATION,ALWAYS ON DISCRETE,ZONE WAREHOUSE FINE B END_A - STORY GROUND,198.60,0.0,0.312,1.572E-003,1.025E-003,0.807,1.000,0.000,0.000,0.000
 ZoneInfiltration Airflow Stats Nominal, WAREHOUSE FINE C  - STORY GROUND INFILTRATION,ALWAYS ON DISCRETE,ZONE WAREHOUSE FINE C  - STORY GROUND,186.95,0.0,0.294,1.572E-003,1.025E-003,0.807,1.000,0.000,0.000,0.000
 ZoneInfiltration Airflow Stats Nominal, WAREHOUSE FINE C END_A - STORY GROUND INFILTRATION,ALWAYS ON DISCRETE,ZONE WAREHOUSE FINE C END_A - STORY GROUND,20.90,0.0,6.572E-002,3.144E-003,1.025E-003,1.615,1.000,0.000,0.000,0.000
 ZoneInfiltration Airflow Stats Nominal, WAREHOUSE OFFICE A  - STORY GROUND INFILTRATION,ALWAYS ON DISCRETE,ZONE WAREHOUSE OFFICE A  - STORY GROUND,35.34,0.7,5.555E-002,1.572E-003,1.025E-003,0.807,1.000,0.000,0.000,0.000
 ZoneInfiltration Airflow Stats Nominal, WAREHOUSE OFFICE C  - STORY GROUND INFILTRATION,ALWAYS ON DISCRETE,ZONE WAREHOUSE OFFICE C  - STORY GROUND,35.34,0.7,5.555E-002,1.572E-003,1.025E-003,0.807,1.000,0.000,0.000,0.000
! <AirFlow Model>, Simple
 AirFlow Model, Simple
! <RoomAir Model>, Zone Name, Mixing/Mundt/UCSDDV/UCSDCV/UCSDUFI/UCSDUFE/User Defined
RoomAir Model,ZONE WAREHOUSE BULK A  - STORY GROUND,Mixing/Well-Stirred
RoomAir Model,ZONE WAREHOUSE BULK A  - STORY TOP,Mixing/Well-Stirred
RoomAir Model,ZONE WAREHOUSE BULK A END_A - STORY TOP,Mixing/Well-Stirred
RoomAir Model,ZONE WAREHOUSE BULK A END_B - STORY GROUND,Mixing/Well-Stirred
RoomAir Model,ZONE WAREHOUSE BULK A END_B - STORY TOP,Mixing/Well-Stirred
RoomAir Model,ZONE WAREHOUSE BULK B  - STORY GROUND,Mixing/Well-Stirred
RoomAir Model,ZONE WAREHOUSE BULK B  - STORY TOP,Mixing/Well-Stirred
RoomAir Model,ZONE WAREHOUSE BULK B END_A - STORY TOP,Mixing/Well-Stirred
RoomAir Model,ZONE WAREHOUSE BULK B END_B - STORY GROUND,Mixing/Well-Stirred
RoomAir Model,ZONE WAREHOUSE BULK B END_B - STORY TOP,Mixing/Well-Stirred
RoomAir Model,ZONE WAREHOUSE BULK C  - STORY GROUND,Mixing/Well-Stirred
RoomAir Model,ZONE WAREHOUSE BULK C  - STORY TOP,Mixing/Well-Stirred
RoomAir Model,ZONE WAREHOUSE BULK C END_A - STORY TOP,Mixing/Well-Stirred
RoomAir Model,ZONE WAREHOUSE BULK C END_B - STORY GROUND,Mixing/Well-Stirred
RoomAir Model,ZONE WAREHOUSE BULK C END_B - STORY TOP,Mixing/Well-Stirred
RoomAir Model,ZONE WAREHOUSE FINE A  - STORY GROUND,Mixing/Well-Stirred
RoomAir Model,ZONE WAREHOUSE FINE A END_A - STORY GROUND,Mixing/Well-Stirred
RoomAir Model,ZONE WAREHOUSE FINE B  - STORY GROUND,Mixing/Well-Stirred
RoomAir Model,ZONE WAREHOUSE FINE B END_A - STORY GROUND,Mixing/Well-Stirred
RoomAir Model,ZONE WAREHOUSE FINE C  - STORY GROUND,Mixing/Well-Stirred
RoomAir Model,ZONE WAREHOUSE FINE C END_A - STORY GROUND,Mixing/Well-Stirred
RoomAir Model,ZONE WAREHOUSE OFFICE A  - STORY GROUND,Mixing/Well-Stirred
RoomAir Model,ZONE WAREHOUSE OFFICE B  - STORY GROUND,Mixing/Well-Stirred
RoomAir Model,ZONE WAREHOUSE OFFICE C  - STORY GROUND,Mixing/Well-Stirred
! <AirflowNetwork Model:Control>, No Multizone or Distribution/Multizone with Distribution/Multizone without Distribution/Multizone with Distribution only during Fan Operation
AirflowNetwork Model:Control,NoMultizoneOrDistribution
! <Zone Volume Capacitance Multiplier>, Sensible Heat Capacity Multiplier, Moisture Capacity Multiplier, Carbon Dioxide Capacity Multiplier, Generic Contaminant Capacity Multiplier
Zone Volume Capacitance Multiplier,   1.000 ,   1.000,   1.000,   1.000
! <Load Timesteps in Zone Design Calculation Averaging Window>, Value
 Load Timesteps in Zone Design Calculation Averaging Window,    6
! <Heating Sizing Factor Information>, Sizing Factor ID, Value
 Heating Sizing Factor Information, Global,   1.2500    
 Heating Sizing Factor Information, Zone ZONE WAREHOUSE BULK A  - STORY GROUND,   1.2500    
 Heating Sizing Factor Information, Zone ZONE WAREHOUSE BULK A  - STORY TOP,   1.2500    
 Heating Sizing Factor Information, Zone ZONE WAREHOUSE BULK A END_A - STORY TOP,   1.2500    
 Heating Sizing Factor Information, Zone ZONE WAREHOUSE BULK A END_B - STORY GROUND,   1.2500    
 Heating Sizing Factor Information, Zone ZONE WAREHOUSE BULK A END_B - STORY TOP,   1.2500    
 Heating Sizing Factor Information, Zone ZONE WAREHOUSE BULK B  - STORY GROUND,   1.2500    
 Heating Sizing Factor Information, Zone ZONE WAREHOUSE BULK B  - STORY TOP,   1.2500    
 Heating Sizing Factor Information, Zone ZONE WAREHOUSE BULK B END_A - STORY TOP,   1.2500    
 Heating Sizing Factor Information, Zone ZONE WAREHOUSE BULK B END_B - STORY GROUND,   1.2500    
 Heating Sizing Factor Information, Zone ZONE WAREHOUSE BULK B END_B - STORY TOP,   1.2500    
 Heating Sizing Factor Information, Zone ZONE WAREHOUSE BULK C  - STORY GROUND,   1.2500    
 Heating Sizing Factor Information, Zone ZONE WAREHOUSE BULK C  - STORY TOP,   1.2500    
 Heating Sizing Factor Information, Zone ZONE WAREHOUSE BULK C END_A - STORY TOP,   1.2500    
 Heating Sizing Factor Information, Zone ZONE WAREHOUSE BULK C END_B - STORY GROUND,   1.2500    
 Heating Sizing Factor Information, Zone ZONE WAREHOUSE BULK C END_B - STORY TOP,   1.2500    
 Heating Sizing Factor Information, Zone ZONE WAREHOUSE FINE A  - STORY GROUND,   1.2500    
 Heating Sizing Factor Information, Zone ZONE WAREHOUSE FINE A END_A - STORY GROUND,   1.2500    
 Heating Sizing Factor Information, Zone ZONE WAREHOUSE FINE B  - STORY GROUND,   1.2500    
 Heating Sizing Factor Information, Zone ZONE WAREHOUSE FINE B END_A - STORY GROUND,   1.2500    
 Heating Sizing Factor Information, Zone ZONE WAREHOUSE FINE C  - STORY GROUND,   1.2500    
 Heating Sizing Factor Information, Zone ZONE WAREHOUSE FINE C END_A - STORY GROUND,   1.2500    
 Heating Sizing Factor Information, Zone ZONE WAREHOUSE OFFICE A  - STORY GROUND,   1.2500    
 Heating Sizing Factor Information, Zone ZONE WAREHOUSE OFFICE B  - STORY GROUND,   1.2500    
 Heating Sizing Factor Information, Zone ZONE WAREHOUSE OFFICE C  - STORY GROUND,   1.2500    
! <Cooling Sizing Factor Information>, Sizing Factor ID, Value
 Cooling Sizing Factor Information, Global,   1.1500    
 Cooling Sizing Factor Information, Zone ZONE WAREHOUSE BULK A  - STORY GROUND,   1.1500    
 Cooling Sizing Factor Information, Zone ZONE WAREHOUSE BULK A  - STORY TOP,   1.1500    
 Cooling Sizing Factor Information, Zone ZONE WAREHOUSE BULK A END_A - STORY TOP,   1.1500    
 Cooling Sizing Factor Information, Zone ZONE WAREHOUSE BULK A END_B - STORY GROUND,   1.1500    
 Cooling Sizing Factor Information, Zone ZONE WAREHOUSE BULK A END_B - STORY TOP,   1.1500    
 Cooling Sizing Factor Information, Zone ZONE WAREHOUSE BULK B  - STORY GROUND,   1.1500    
 Cooling Sizing Factor Information, Zone ZONE WAREHOUSE BULK B  - STORY TOP,   1.1500    
 Cooling Sizing Factor Information, Zone ZONE WAREHOUSE BULK B END_A - STORY TOP,   1.1500    
 Cooling Sizing Factor Information, Zone ZONE WAREHOUSE BULK B END_B - STORY GROUND,   1.1500    
 Cooling Sizing Factor Information, Zone ZONE WAREHOUSE BULK B END_B - STORY TOP,   1.1500    
 Cooling Sizing Factor Information, Zone ZONE WAREHOUSE BULK C  - STORY GROUND,   1.1500    
 Cooling Sizing Factor Information, Zone ZONE WAREHOUSE BULK C  - STORY TOP,   1.1500    
 Cooling Sizing Factor Information, Zone ZONE WAREHOUSE BULK C END_A - STORY TOP,   1.1500    
 Cooling Sizing Factor Information, Zone ZONE WAREHOUSE BULK C END_B - STORY GROUND,   1.1500    
 Cooling Sizing Factor Information, Zone ZONE WAREHOUSE BULK C END_B - STORY TOP,   1.1500    
 Cooling Sizing Factor Information, Zone ZONE WAREHOUSE FINE A  - STORY GROUND,   1.1500    
 Cooling Sizing Factor Information, Zone ZONE WAREHOUSE FINE A END_A - STORY GROUND,   1.1500    
 Cooling Sizing Factor Information, Zone ZONE WAREHOUSE FINE B  - STORY GROUND,   1.1500    
 Cooling Sizing Factor Information, Zone ZONE WAREHOUSE FINE B END_A - STORY GROUND,   1.1500    
 Cooling Sizing Factor Information, Zone ZONE WAREHOUSE FINE C  - STORY GROUND,   1.1500    
 Cooling Sizing Factor Information, Zone ZONE WAREHOUSE FINE C END_A - STORY GROUND,   1.1500    
 Cooling Sizing Factor Information, Zone ZONE WAREHOUSE OFFICE A  - STORY GROUND,   1.1500    
 Cooling Sizing Factor Information, Zone ZONE WAREHOUSE OFFICE B  - STORY GROUND,   1.1500    
 Cooling Sizing Factor Information, Zone ZONE WAREHOUSE OFFICE C  - STORY GROUND,   1.1500    
! <Zone Sizing Information>, Zone Name, Load Type, Calc Des Load {W}, User Des Load {W}, Calc Des Air Flow Rate {m3/s}, User Des Air Flow Rate {m3/s}, Design Day Name, Date/Time of Peak, Temperature at Peak {C}, Humidity Ratio at Peak {kgWater/kgDryAir}, Floor Area {m2}, # Occupants, Calc Outdoor Air Flow Rate {m3/s}, Calc DOAS Heat Addition Rate {W}
 Zone Sizing Information, ZONE WAREHOUSE BULK A  - STORY GROUND, Cooling, 0.00000, 0.00000, 0.00000, 2.45133E-002, KODIAK JULY .4% CONDNS DB=>MCWB, 7/21 15:40:00, 23.98000, 8.28459E-003, 96.50904, 0.00000, 2.45133E-002, 0.00000
 Zone Sizing Information, ZONE WAREHOUSE BULK A  - STORY GROUND, Heating, 4702.56340, 5878.20425, 0.11722, 0.14652, KODIAK ANN HTG 99.6% CONDNS DB, 1/21 06:30:00, -12.80000, 1.24844E-003, 96.50904, 0.00000, 2.45133E-002, 0.00000
 Zone Sizing Information, ZONE WAREHOUSE BULK A  - STORY TOP, Cooling, 0.00000, 0.00000, 0.00000, 8.09743E-002, KODIAK JULY .4% CONDNS DB=>MCWB, 7/21 15:00:00, 24.20000, 8.28493E-003, 318.79628, 0.00000, 8.09743E-002, 0.00000
 Zone Sizing Information, ZONE WAREHOUSE BULK A  - STORY TOP, Heating, 15613.75205, 19517.19007, 0.38920, 0.48650, KODIAK ANN HTG 99.6% CONDNS DB, 1/21 08:00:00, -12.80000, 1.24844E-003, 318.79628, 0.00000, 8.09743E-002, 0.00000
 Zone Sizing Information, ZONE WAREHOUSE BULK A END_A - STORY TOP, Cooling, 0.00000, 0.00000, 0.00000, 5.30941E-003, KODIAK JULY .4% CONDNS DB=>MCWB, 7/21 17:10:00, 23.33833, 8.28360E-003, 20.90318, 0.00000, 5.30941E-003, 0.00000
 Zone Sizing Information, ZONE WAREHOUSE BULK A END_A - STORY TOP, Heating, 2273.47487, 2841.84358, 5.66699E-002, 7.08374E-002, KODIAK ANN HTG 99.6% CONDNS DB, 1/21 08:00:00, -12.80000, 1.24844E-003, 20.90318, 0.00000, 5.30941E-003, 0.00000
 Zone Sizing Information, ZONE WAREHOUSE BULK A END_B - STORY GROUND, Cooling, 0.00000, 0.00000, 0.00000, 5.30941E-003, KODIAK JULY .4% CONDNS DB=>MCWB, 7/21 15:20:00, 24.09000, 8.28476E-003, 20.90318, 0.00000, 5.30941E-003, 0.00000
 Zone Sizing Information, ZONE WAREHOUSE BULK A END_B - STORY GROUND, Heating, 2470.13132, 3087.66415, 6.15719E-002, 7.69648E-002, KODIAK ANN HTG 99.6% CONDNS DB, 1/21 07:50:00, -12.80000, 1.24844E-003, 20.90318, 0.00000, 5.30941E-003, 0.00000
 Zone Sizing Information, ZONE WAREHOUSE BULK A END_B - STORY TOP, Cooling, 0.00000, 0.00000, 0.00000, 5.30941E-003, KODIAK JULY .4% CONDNS DB=>MCWB, 7/21 14:30:00, 24.20000, 8.28493E-003, 20.90318, 0.00000, 5.30941E-003, 0.00000
 Zone Sizing Information, ZONE WAREHOUSE BULK A END_B - STORY TOP, Heating, 2477.28229, 3096.60287, 6.17501E-002, 7.71876E-002, KODIAK ANN HTG 99.6% CONDNS DB, 1/21 08:00:00, -12.80000, 1.24844E-003, 20.90318, 0.00000, 5.30941E-003, 0.00000
 Zone Sizing Information, ZONE WAREHOUSE BULK B  - STORY GROUND, Cooling, 0.00000, 0.00000, 0.00000, 0.23289, KODIAK JULY .4% CONDNS DB=>MCWB, 7/21 17:00:00, 23.43000, 8.28374E-003, 916.90578, 0.00000, 0.23289, 0.00000
 Zone Sizing Information, ZONE WAREHOUSE BULK B  - STORY GROUND, Heating, 0.00000, 0.00000, 0.00000, 0.23289, KODIAK ANN HTG 99.6% CONDNS DB, 1/21 06:50:00, -12.80000, 1.24844E-003, 916.90578, 0.00000, 0.23289, 0.00000
 Zone Sizing Information, ZONE WAREHOUSE BULK B  - STORY TOP, Cooling, 0.00000, 0.00000, 0.00000, 0.76931, KODIAK JULY .4% CONDNS DB=>MCWB, 7/21 17:00:00, 23.43000, 8.28374E-003, 3028.79563, 0.00000, 0.76931, 0.00000
 Zone Sizing Information, ZONE WAREHOUSE BULK B  - STORY TOP, Heating, 0.00000, 0.00000, 0.00000, 0.76931, KODIAK ANN HTG 99.6% CONDNS DB, 1/21 08:00:00, -12.80000, 1.24844E-003, 3028.79563, 0.00000, 0.76931, 0.00000
 Zone Sizing Information, ZONE WAREHOUSE BULK B END_A - STORY TOP, Cooling, 0.00000, 0.00000, 0.00000, 5.04432E-002, KODIAK JULY .4% CONDNS DB=>MCWB, 7/21 18:50:00, 22.19250, 8.28183E-003, 198.59539, 0.00000, 5.04432E-002, 0.00000
 Zone Sizing Information, ZONE WAREHOUSE BULK B END_A - STORY TOP, Heating, 9374.23517, 11717.79396, 0.23367, 0.29208, KODIAK ANN HTG 99.6% CONDNS DB, 1/21 08:00:00, -12.80000, 1.24844E-003, 198.59539, 0.00000, 5.04432E-002, 0.00000
 Zone Sizing Information, ZONE WAREHOUSE BULK B END_B - STORY GROUND, Cooling, 0.00000, 0.00000, 0.00000, 5.04432E-002, KODIAK JULY .4% CONDNS DB=>MCWB, 7/21 11:40:00, 23.30167, 8.28354E-003, 198.59539, 0.00000, 5.04432E-002, 0.00000
 Zone Sizing Information, ZONE WAREHOUSE BULK B END_B - STORY GROUND, Heating, 10361.35032, 12951.68790, 0.25827, 0.32284, KODIAK ANN HTG 99.6% CONDNS DB, 1/21 08:00:00, -12.80000, 1.24844E-003, 198.59539, 0.00000, 5.04432E-002, 0.00000
 Zone Sizing Information, ZONE WAREHOUSE BULK B END_B - STORY TOP, Cooling, 0.00000, 0.00000, 0.00000, 5.04432E-002, KODIAK JULY .4% CONDNS DB=>MCWB, 7/21 11:00:00, 22.93500, 8.28298E-003, 198.59539, 0.00000, 5.04432E-002, 0.00000
 Zone Sizing Information, ZONE WAREHOUSE BULK B END_B - STORY TOP, Heating, 10860.04281, 13575.05351, 0.27070, 0.33838, KODIAK ANN HTG 99.6% CONDNS DB, 1/21 08:00:00, -12.80000, 1.24844E-003, 198.59539, 0.00000, 5.04432E-002, 0.00000
 Zone Sizing Information, ZONE WAREHOUSE BULK C  - STORY GROUND, Cooling, 0.00000, 0.00000, 0.00000, 2.45133E-002, KODIAK JULY .4% CONDNS DB=>MCWB, 7/21 15:40:00, 23.98000, 8.28459E-003, 96.50904, 0.00000, 2.45133E-002, 0.00000
 Zone Sizing Information, ZONE WAREHOUSE BULK C  - STORY GROUND, Heating, 4714.34848, 5892.93559, 0.11751, 0.14689, KODIAK ANN HTG 99.6% CONDNS DB, 1/21 06:30:00, -12.80000, 1.24844E-003, 96.50904, 0.00000, 2.45133E-002, 0.00000
 Zone Sizing Information, ZONE WAREHOUSE BULK C  - STORY TOP, Cooling, 0.00000, 0.00000, 0.00000, 8.09743E-002, KODIAK JULY .4% CONDNS DB=>MCWB, 7/21 16:10:00, 23.79667, 8.28431E-003, 318.79628, 0.00000, 8.09743E-002, 0.00000
 Zone Sizing Information, ZONE WAREHOUSE BULK C  - STORY TOP, Heating, 15661.34859, 19576.68574, 0.39038, 0.48798, KODIAK ANN HTG 99.6% CONDNS DB, 1/21 08:00:00, -12.80000, 1.24844E-003, 318.79628, 0.00000, 8.09743E-002, 0.00000
 Zone Sizing Information, ZONE WAREHOUSE BULK C END_A - STORY TOP, Cooling, 0.00000, 0.00000, 0.00000, 5.30941E-003, KODIAK JULY .4% CONDNS DB=>MCWB, 7/21 18:50:00, 22.19250, 8.28183E-003, 20.90318, 0.00000, 5.30941E-003, 0.00000
 Zone Sizing Information, ZONE WAREHOUSE BULK C END_A - STORY TOP, Heating, 2277.69771, 2847.12214, 5.67752E-002, 7.09690E-002, KODIAK ANN HTG 99.6% CONDNS DB, 1/21 08:00:00, -12.80000, 1.24844E-003, 20.90318, 0.00000, 5.30941E-003, 0.00000
 Zone Sizing Information, ZONE WAREHOUSE BULK C END_B - STORY GROUND, Cooling, 0.00000, 0.00000, 0.00000, 5.30941E-003, KODIAK JULY .4% CONDNS DB=>MCWB, 7/21 12:00:00, 23.48500, 8.28382E-003, 20.90318, 0.00000, 5.30941E-003, 0.00000
 Zone Sizing Information, ZONE WAREHOUSE BULK C END_B - STORY GROUND, Heating, 2473.15775, 3091.44719, 6.16473E-002, 7.70591E-002, KODIAK ANN HTG 99.6% CONDNS DB, 1/21 07:50:00, -12.80000, 1.24844E-003, 20.90318, 0.00000, 5.30941E-003, 0.00000
 Zone Sizing Information, ZONE WAREHOUSE BULK C END_B - STORY TOP, Cooling, 0.00000, 0.00000, 0.00000, 5.30941E-003, KODIAK JULY .4% CONDNS DB=>MCWB, 7/21 11:20:00, 23.11833, 8.28326E-003, 20.90318, 0.00000, 5.30941E-003, 0.00000
 Zone Sizing Information, ZONE WAREHOUSE BULK C END_B - STORY TOP, Heating, 2481.23478, 3101.54348, 6.18486E-002, 7.73108E-002, KODIAK ANN HTG 99.6% CONDNS DB, 1/21 08:00:00, -12.80000, 1.24844E-003, 20.90318, 0.00000, 5.30941E-003, 0.00000
 Zone Sizing Information, ZONE WAREHOUSE FINE A  - STORY GROUND, Cooling, 7434.68738, 8549.89049, 0.43621, 0.50165, KODIAK AUGUST .4% CONDNS DB=>MCWB, 8/21 15:30:00, 22.41100, 8.70738E-003, 186.94818, 0.00000, 4.74848E-002, 0.00000
 Zone Sizing Information, ZONE WAREHOUSE FINE A  - STORY GROUND, Heating, 18308.27018, 22885.33772, 0.43451, 0.54314, KODIAK ANN HTG 99.6% CONDNS DB, 1/21 06:40:00, -12.80000, 1.24844E-003, 186.94818, 0.00000, 4.74848E-002, 0.00000
 Zone Sizing Information, ZONE WAREHOUSE FINE A END_A - STORY GROUND, Cooling, 1177.29283, 1353.88676, 6.90732E-002, 7.94342E-002, KODIAK JULY .4% CONDNS DB=>MCWB, 7/21 17:10:00, 23.33833, 8.28360E-003, 20.90318, 0.00000, 5.30941E-003, 0.00000
 Zone Sizing Information, ZONE WAREHOUSE FINE A END_A - STORY GROUND, Heating, 3953.44933, 4941.81167, 9.38311E-002, 0.11729, KODIAK ANN HTG 99.6% CONDNS DB, 1/21 19:00:00, -12.80000, 1.24844E-003, 20.90318, 0.00000, 5.30941E-003, 0.00000
 Zone Sizing Information, ZONE WAREHOUSE FINE B  - STORY GROUND, Cooling, 32163.86763, 36988.44778, 1.88712, 2.17019, KODIAK JULY .4% CONDNS DB=>MCWB, 7/21 21:10:00, 20.87250, 8.27981E-003, 1776.14318, 0.00000, 0.45114, 0.00000
 Zone Sizing Information, ZONE WAREHOUSE FINE B  - STORY GROUND, Heating, 17508.43470, 21885.54338, 0.41564, 0.51955, KODIAK ANN HTG 99.6% CONDNS DB, 1/21 06:30:00, -12.80000, 1.24844E-003, 1776.14318, 0.00000, 0.45114, 0.00000
 Zone Sizing Information, ZONE WAREHOUSE FINE B END_A - STORY GROUND, Cooling, 8821.51646, 10144.74393, 0.51757, 0.59521, KODIAK JULY .4% CONDNS DB=>MCWB, 7/21 20:10:00, 21.36750, 8.28056E-003, 198.59539, 0.00000, 5.04432E-002, 0.00000
 Zone Sizing Information, ZONE WAREHOUSE FINE B END_A - STORY GROUND, Heating, 19517.13693, 24396.42116, 0.46320, 0.57900, KODIAK ANN HTG 99.6% CONDNS DB, 1/21 07:10:00, -12.80000, 1.24844E-003, 198.59539, 0.00000, 5.04432E-002, 0.00000
 Zone Sizing Information, ZONE WAREHOUSE FINE C  - STORY GROUND, Cooling, 2070.44754, 2381.01467, 0.12148, 0.13970, KODIAK JULY .4% CONDNS DB=>MCWB, 7/21 15:30:00, 24.03500, 8.28468E-003, 186.94818, 0.00000, 4.74848E-002, 0.00000
 Zone Sizing Information, ZONE WAREHOUSE FINE C  - STORY GROUND, Heating, 18347.29605, 22934.12006, 0.43544, 0.54429, KODIAK ANN HTG 99.6% CONDNS DB, 1/21 06:40:00, -12.80000, 1.24844E-003, 186.94818, 0.00000, 4.74848E-002, 0.00000
 Zone Sizing Information, ZONE WAREHOUSE FINE C END_A - STORY GROUND, Cooling, 745.18096, 856.95810, 4.37207E-002, 5.02789E-002, KODIAK JULY .4% CONDNS DB=>MCWB, 7/21 20:30:00, 21.20250, 8.28031E-003, 20.90318, 0.00000, 5.30941E-003, 0.00000
 Zone Sizing Information, ZONE WAREHOUSE FINE C END_A - STORY GROUND, Heating, 3959.51860, 4949.39825, 9.39751E-002, 0.11747, KODIAK ANN HTG 99.6% CONDNS DB, 1/21 19:00:00, -12.80000, 1.24844E-003, 20.90318, 0.00000, 5.30941E-003, 0.00000
 Zone Sizing Information, ZONE WAREHOUSE OFFICE A  - STORY GROUND, Cooling, 3462.95515, 3982.39842, 0.25207, 0.28988, KODIAK AUGUST .4% CONDNS DB=>MCWB, 8/21 15:30:00, 22.41100, 8.70738E-003, 35.33906, 0.74556, 7.03728E-003, 0.00000
 Zone Sizing Information, ZONE WAREHOUSE OFFICE A  - STORY GROUND, Heating, 6253.18912, 7816.48640, 0.17583, 0.21978, KODIAK ANN HTG 99.6% CONDNS DB, 1/21 09:00:00, -12.80000, 1.24844E-003, 35.33906, 0.74556, 7.03728E-003, 0.00000
 Zone Sizing Information, ZONE WAREHOUSE OFFICE B  - STORY GROUND, Cooling, 28843.68963, 33170.24308, 1.88862, 2.17191, KODIAK JULY .4% CONDNS DB=>MCWB, 7/21 07:00:00, 19.19500, 8.27726E-003, 335.74667, 7.08334, 6.68592E-002, 0.00000
 Zone Sizing Information, ZONE WAREHOUSE OFFICE B  - STORY GROUND, Heating, 17477.51354, 21846.89193, 0.49075, 0.61344, KODIAK ANN HTG 99.6% CONDNS DB, 1/21 09:00:00, -12.80000, 1.24844E-003, 335.74667, 7.08334, 6.68592E-002, 0.00000
 Zone Sizing Information, ZONE WAREHOUSE OFFICE C  - STORY GROUND, Cooling, 2613.63947, 3005.68539, 0.17888, 0.20571, KODIAK JULY .4% CONDNS DB=>MCWB, 7/21 07:00:00, 19.19500, 8.27726E-003, 35.33906, 0.74556, 7.03728E-003, 0.00000
 Zone Sizing Information, ZONE WAREHOUSE OFFICE C  - STORY GROUND, Heating, 6264.76758, 7830.95947, 0.17615, 0.22019, KODIAK ANN HTG 99.6% CONDNS DB, 1/21 09:00:00, -12.80000, 1.24844E-003, 35.33906, 0.74556, 7.03728E-003, 0.00000
! <System Sizing Information>, System Name, Load Type, Peak Load Kind, User Design Capacity, Calc Des Air Flow Rate [m3/s], User Des Air Flow Rate [m3/s], Design Day Name, Date/Time of Peak
 System Sizing Information, ZONE WAREHOUSE FINE A  - STORY GROUND PSZ-AC, Cooling, Sensible, 8172.22, 0.50165, 0.50165, KODIAK AUGUST .4% CONDNS DB=>MCWB, 8/21 05:00:00
 System Sizing Information, ZONE WAREHOUSE FINE A  - STORY GROUND PSZ-AC, Heating, Sensible, 24174.57, 0.54314, 0.54314, KODIAK ANN HTG 99.6% CONDNS DB, 1/21 06:40:00
 System Sizing Information, ZONE WAREHOUSE FINE A END_A - STORY GROUND PSZ-AC, Cooling, Sensible, 1311.44, 7.94342E-002, 7.94342E-002, KODIAK JULY .4% CONDNS DB=>MCWB, 7/21 05:00:00
 System Sizing Information, ZONE WAREHOUSE FINE A END_A - STORY GROUND PSZ-AC, Heating, Sensible, 5051.26, 0.11729, 0.11729, KODIAK ANN HTG 99.6% CONDNS DB, 1/21 19:00:00
 System Sizing Information, ZONE WAREHOUSE FINE B  - STORY GROUND PSZ-AC, Cooling, Sensible, 33282.75, 2.17019, 2.17019, KODIAK JULY .4% CONDNS DB=>MCWB, 7/21 05:00:00
 System Sizing Information, ZONE WAREHOUSE FINE B  - STORY GROUND PSZ-AC, Heating, Sensible, 36987.65, 0.51955, 0.51955, KODIAK ANN HTG 99.6% CONDNS DB, 1/21 06:30:00
 System Sizing Information, ZONE WAREHOUSE FINE B END_A - STORY GROUND PSZ-AC, Cooling, Sensible, 9663.65, 0.59521, 0.59521, KODIAK JULY .4% CONDNS DB=>MCWB, 7/21 05:00:00
 System Sizing Information, ZONE WAREHOUSE FINE B END_A - STORY GROUND PSZ-AC, Heating, Sensible, 25764.73, 0.57900, 0.57900, KODIAK ANN HTG 99.6% CONDNS DB, 1/21 07:10:00
 System Sizing Information, ZONE WAREHOUSE FINE C  - STORY GROUND PSZ-AC, Cooling, Sensible, 2192.44, 0.13970, 0.13970, KODIAK JULY .4% CONDNS DB=>MCWB, 7/21 05:00:00
 System Sizing Information, ZONE WAREHOUSE FINE C  - STORY GROUND PSZ-AC, Heating, Sensible, 24222.64, 0.54429, 0.54429, KODIAK ANN HTG 99.6% CONDNS DB, 1/21 06:40:00
 System Sizing Information, ZONE WAREHOUSE FINE C END_A - STORY GROUND PSZ-AC, Cooling, Sensible, 808.52, 5.02789E-002, 5.02789E-002, KODIAK JULY .4% CONDNS DB=>MCWB, 7/21 05:00:00
 System Sizing Information, ZONE WAREHOUSE FINE C END_A - STORY GROUND PSZ-AC, Heating, Sensible, 5058.74, 0.11747, 0.11747, KODIAK ANN HTG 99.6% CONDNS DB, 1/21 19:00:00
 System Sizing Information, ZONE WAREHOUSE OFFICE A  - STORY GROUND PSZ-AC, Cooling, Sensible, 3907.34, 0.28988, 0.28988, KODIAK AUGUST .4% CONDNS DB=>MCWB, 8/21 05:00:00
 System Sizing Information, ZONE WAREHOUSE OFFICE A  - STORY GROUND PSZ-AC, Heating, Sensible, 7983.00, 0.21978, 0.21978, KODIAK ANN HTG 99.6% CONDNS DB, 1/21 09:00:00
 System Sizing Information, ZONE WAREHOUSE OFFICE B  - STORY GROUND PSZ-AC, Cooling, Sensible, 28960.71, 2.17191, 2.17191, KODIAK JULY .4% CONDNS DB=>MCWB, 7/21 05:00:00
 System Sizing Information, ZONE WAREHOUSE OFFICE B  - STORY GROUND PSZ-AC, Heating, Sensible, 24218.69, 0.61344, 0.61344, KODIAK ANN HTG 99.6% CONDNS DB, 1/21 09:00:00
 System Sizing Information, ZONE WAREHOUSE OFFICE C  - STORY GROUND PSZ-AC, Cooling, Sensible, 2740.30, 0.20571, 0.20571, KODIAK JULY .4% CONDNS DB=>MCWB, 7/21 05:00:00
 System Sizing Information, ZONE WAREHOUSE OFFICE C  - STORY GROUND PSZ-AC, Heating, Sensible, 7997.26, 0.22019, 0.22019, KODIAK ANN HTG 99.6% CONDNS DB, 1/21 09:00:00
! <Component Sizing Information>, Component Type, Component Name, Input Field Description, Value
 Component Sizing Information, ZONEHVAC:BASEBOARD:CONVECTIVE:ELECTRIC, ZONE WAREHOUSE BULK A  - STORY GROUND ELECTRIC BASEBOARD, Design Size Heating Design Capacity [W], 5878.20425
 Component Sizing Information, ZONEHVAC:BASEBOARD:CONVECTIVE:ELECTRIC, ZONE WAREHOUSE BULK A  - STORY TOP ELECTRIC BASEBOARD, Design Size Heating Design Capacity [W], 19517.19007
 Component Sizing Information, ZONEHVAC:BASEBOARD:CONVECTIVE:ELECTRIC, ZONE WAREHOUSE BULK A END_A - STORY TOP ELECTRIC BASEBOARD, Design Size Heating Design Capacity [W], 2841.84358
 Component Sizing Information, ZONEHVAC:BASEBOARD:CONVECTIVE:ELECTRIC, ZONE WAREHOUSE BULK A END_B - STORY GROUND ELECTRIC BASEBOARD, Design Size Heating Design Capacity [W], 3087.66415
 Component Sizing Information, ZONEHVAC:BASEBOARD:CONVECTIVE:ELECTRIC, ZONE WAREHOUSE BULK A END_B - STORY TOP ELECTRIC BASEBOARD, Design Size Heating Design Capacity [W], 3096.60287
 Component Sizing Information, ZONEHVAC:BASEBOARD:CONVECTIVE:ELECTRIC, ZONE WAREHOUSE BULK B  - STORY GROUND ELECTRIC BASEBOARD, Design Size Heating Design Capacity [W], 0.00000
 Component Sizing Information, ZONEHVAC:BASEBOARD:CONVECTIVE:ELECTRIC, ZONE WAREHOUSE BULK B  - STORY TOP ELECTRIC BASEBOARD, Design Size Heating Design Capacity [W], 0.00000
 Component Sizing Information, ZONEHVAC:BASEBOARD:CONVECTIVE:ELECTRIC, ZONE WAREHOUSE BULK B END_A - STORY TOP ELECTRIC BASEBOARD, Design Size Heating Design Capacity [W], 11717.79396
 Component Sizing Information, ZONEHVAC:BASEBOARD:CONVECTIVE:ELECTRIC, ZONE WAREHOUSE BULK B END_B - STORY GROUND ELECTRIC BASEBOARD, Design Size Heating Design Capacity [W], 12951.68790
 Component Sizing Information, ZONEHVAC:BASEBOARD:CONVECTIVE:ELECTRIC, ZONE WAREHOUSE BULK B END_B - STORY TOP ELECTRIC BASEBOARD, Design Size Heating Design Capacity [W], 13575.05351
 Component Sizing Information, ZONEHVAC:BASEBOARD:CONVECTIVE:ELECTRIC, ZONE WAREHOUSE BULK C  - STORY GROUND ELECTRIC BASEBOARD, Design Size Heating Design Capacity [W], 5892.93559
 Component Sizing Information, ZONEHVAC:BASEBOARD:CONVECTIVE:ELECTRIC, ZONE WAREHOUSE BULK C  - STORY TOP ELECTRIC BASEBOARD, Design Size Heating Design Capacity [W], 19576.68574
 Component Sizing Information, ZONEHVAC:BASEBOARD:CONVECTIVE:ELECTRIC, ZONE WAREHOUSE BULK C END_A - STORY TOP ELECTRIC BASEBOARD, Design Size Heating Design Capacity [W], 2847.12214
 Component Sizing Information, ZONEHVAC:BASEBOARD:CONVECTIVE:ELECTRIC, ZONE WAREHOUSE BULK C END_B - STORY GROUND ELECTRIC BASEBOARD, Design Size Heating Design Capacity [W], 3091.44719
 Component Sizing Information, ZONEHVAC:BASEBOARD:CONVECTIVE:ELECTRIC, ZONE WAREHOUSE BULK C END_B - STORY TOP ELECTRIC BASEBOARD, Design Size Heating Design Capacity [W], 3101.54348
 Component Sizing Information, AirTerminal:SingleDuct:ConstantVolume:NoReheat, ZONE WAREHOUSE FINE A  - STORY GROUND PSZ-AC DIFFUSER, Design Size Maximum Air Flow Rate [m3/s], 0.54314
 Component Sizing Information, AirTerminal:SingleDuct:ConstantVolume:NoReheat, ZONE WAREHOUSE FINE A END_A - STORY GROUND PSZ-AC DIFFUSER, Design Size Maximum Air Flow Rate [m3/s], 0.11729
 Component Sizing Information, AirTerminal:SingleDuct:ConstantVolume:NoReheat, ZONE WAREHOUSE FINE B  - STORY GROUND PSZ-AC DIFFUSER, Design Size Maximum Air Flow Rate [m3/s], 2.17019
 Component Sizing Information, AirTerminal:SingleDuct:ConstantVolume:NoReheat, ZONE WAREHOUSE FINE B END_A - STORY GROUND PSZ-AC DIFFUSER, Design Size Maximum Air Flow Rate [m3/s], 0.59521
 Component Sizing Information, AirTerminal:SingleDuct:ConstantVolume:NoReheat, ZONE WAREHOUSE FINE C  - STORY GROUND PSZ-AC DIFFUSER, Design Size Maximum Air Flow Rate [m3/s], 0.54429
 Component Sizing Information, AirTerminal:SingleDuct:ConstantVolume:NoReheat, ZONE WAREHOUSE FINE C END_A - STORY GROUND PSZ-AC DIFFUSER, Design Size Maximum Air Flow Rate [m3/s], 0.11747
 Component Sizing Information, AirTerminal:SingleDuct:ConstantVolume:NoReheat, ZONE WAREHOUSE OFFICE A  - STORY GROUND PSZ-AC DIFFUSER, Design Size Maximum Air Flow Rate [m3/s], 0.28988
 Component Sizing Information, AirTerminal:SingleDuct:ConstantVolume:NoReheat, ZONE WAREHOUSE OFFICE B  - STORY GROUND PSZ-AC DIFFUSER, Design Size Maximum Air Flow Rate [m3/s], 2.17191
 Component Sizing Information, AirTerminal:SingleDuct:ConstantVolume:NoReheat, ZONE WAREHOUSE OFFICE C  - STORY GROUND PSZ-AC DIFFUSER, Design Size Maximum Air Flow Rate [m3/s], 0.22019
 Component Sizing Information, AirLoopHVAC, ZONE WAREHOUSE FINE A  - STORY GROUND PSZ-AC, Sum of Air Terminal Maximum Heating Flow Rates [m3/s], 0.54314
 Component Sizing Information, AirLoopHVAC, ZONE WAREHOUSE FINE A  - STORY GROUND PSZ-AC, Sum of Air Terminal Minimum Heating Flow Rates [m3/s], 0.54314
 Component Sizing Information, AirLoopHVAC, ZONE WAREHOUSE FINE A  - STORY GROUND PSZ-AC, Sum of Air Terminal Maximum Flow Rates [m3/s], 0.54314
 Component Sizing Information, AirLoopHVAC, ZONE WAREHOUSE FINE A  - STORY GROUND PSZ-AC, Adjusted Heating Design Air Flow Rate [m3/s], 0.54314
 Component Sizing Information, AirLoopHVAC, ZONE WAREHOUSE FINE A  - STORY GROUND PSZ-AC, Adjusted Cooling Design Air Flow Rate [m3/s], 0.54314
 Component Sizing Information, AirLoopHVAC, ZONE WAREHOUSE FINE A  - STORY GROUND PSZ-AC, Adjusted Main Design Air Flow Rate [m3/s], 0.54314
 Component Sizing Information, AirLoopHVAC, ZONE WAREHOUSE FINE A  - STORY GROUND PSZ-AC, User Heating Air Flow Ratio [], 1.00000
 Component Sizing Information, AirLoopHVAC, ZONE WAREHOUSE FINE A  - STORY GROUND PSZ-AC, Calculated Heating Air Flow Ratio [], 1.00000
 Component Sizing Information, AirLoopHVAC, ZONE WAREHOUSE FINE A END_A - STORY GROUND PSZ-AC, Sum of Air Terminal Maximum Heating Flow Rates [m3/s], 0.11729
 Component Sizing Information, AirLoopHVAC, ZONE WAREHOUSE FINE A END_A - STORY GROUND PSZ-AC, Sum of Air Terminal Minimum Heating Flow Rates [m3/s], 0.11729
 Component Sizing Information, AirLoopHVAC, ZONE WAREHOUSE FINE A END_A - STORY GROUND PSZ-AC, Sum of Air Terminal Maximum Flow Rates [m3/s], 0.11729
 Component Sizing Information, AirLoopHVAC, ZONE WAREHOUSE FINE A END_A - STORY GROUND PSZ-AC, Adjusted Heating Design Air Flow Rate [m3/s], 0.11729
 Component Sizing Information, AirLoopHVAC, ZONE WAREHOUSE FINE A END_A - STORY GROUND PSZ-AC, Adjusted Cooling Design Air Flow Rate [m3/s], 0.11729
 Component Sizing Information, AirLoopHVAC, ZONE WAREHOUSE FINE A END_A - STORY GROUND PSZ-AC, Adjusted Main Design Air Flow Rate [m3/s], 0.11729
 Component Sizing Information, AirLoopHVAC, ZONE WAREHOUSE FINE A END_A - STORY GROUND PSZ-AC, User Heating Air Flow Ratio [], 1.00000
 Component Sizing Information, AirLoopHVAC, ZONE WAREHOUSE FINE A END_A - STORY GROUND PSZ-AC, Calculated Heating Air Flow Ratio [], 1.00000
 Component Sizing Information, AirLoopHVAC, ZONE WAREHOUSE FINE B  - STORY GROUND PSZ-AC, Sum of Air Terminal Maximum Heating Flow Rates [m3/s], 2.17019
 Component Sizing Information, AirLoopHVAC, ZONE WAREHOUSE FINE B  - STORY GROUND PSZ-AC, Sum of Air Terminal Minimum Heating Flow Rates [m3/s], 2.17019
 Component Sizing Information, AirLoopHVAC, ZONE WAREHOUSE FINE B  - STORY GROUND PSZ-AC, Sum of Air Terminal Maximum Flow Rates [m3/s], 2.17019
 Component Sizing Information, AirLoopHVAC, ZONE WAREHOUSE FINE B  - STORY GROUND PSZ-AC, Adjusted Heating Design Air Flow Rate [m3/s], 2.17019
 Component Sizing Information, AirLoopHVAC, ZONE WAREHOUSE FINE B  - STORY GROUND PSZ-AC, Adjusted Cooling Design Air Flow Rate [m3/s], 2.17019
 Component Sizing Information, AirLoopHVAC, ZONE WAREHOUSE FINE B  - STORY GROUND PSZ-AC, Adjusted Main Design Air Flow Rate [m3/s], 2.17019
 Component Sizing Information, AirLoopHVAC, ZONE WAREHOUSE FINE B  - STORY GROUND PSZ-AC, User Heating Air Flow Ratio [], 1.00000
 Component Sizing Information, AirLoopHVAC, ZONE WAREHOUSE FINE B  - STORY GROUND PSZ-AC, Calculated Heating Air Flow Ratio [], 1.00000
 Component Sizing Information, AirLoopHVAC, ZONE WAREHOUSE FINE B END_A - STORY GROUND PSZ-AC, Sum of Air Terminal Maximum Heating Flow Rates [m3/s], 0.59521
 Component Sizing Information, AirLoopHVAC, ZONE WAREHOUSE FINE B END_A - STORY GROUND PSZ-AC, Sum of Air Terminal Minimum Heating Flow Rates [m3/s], 0.59521
 Component Sizing Information, AirLoopHVAC, ZONE WAREHOUSE FINE B END_A - STORY GROUND PSZ-AC, Sum of Air Terminal Maximum Flow Rates [m3/s], 0.59521
 Component Sizing Information, AirLoopHVAC, ZONE WAREHOUSE FINE B END_A - STORY GROUND PSZ-AC, Adjusted Heating Design Air Flow Rate [m3/s], 0.59521
 Component Sizing Information, AirLoopHVAC, ZONE WAREHOUSE FINE B END_A - STORY GROUND PSZ-AC, Adjusted Cooling Design Air Flow Rate [m3/s], 0.59521
 Component Sizing Information, AirLoopHVAC, ZONE WAREHOUSE FINE B END_A - STORY GROUND PSZ-AC, Adjusted Main Design Air Flow Rate [m3/s], 0.59521
 Component Sizing Information, AirLoopHVAC, ZONE WAREHOUSE FINE B END_A - STORY GROUND PSZ-AC, User Heating Air Flow Ratio [], 1.00000
 Component Sizing Information, AirLoopHVAC, ZONE WAREHOUSE FINE B END_A - STORY GROUND PSZ-AC, Calculated Heating Air Flow Ratio [], 1.00000
 Component Sizing Information, AirLoopHVAC, ZONE WAREHOUSE FINE C  - STORY GROUND PSZ-AC, Sum of Air Terminal Maximum Heating Flow Rates [m3/s], 0.54429
 Component Sizing Information, AirLoopHVAC, ZONE WAREHOUSE FINE C  - STORY GROUND PSZ-AC, Sum of Air Terminal Minimum Heating Flow Rates [m3/s], 0.54429
 Component Sizing Information, AirLoopHVAC, ZONE WAREHOUSE FINE C  - STORY GROUND PSZ-AC, Sum of Air Terminal Maximum Flow Rates [m3/s], 0.54429
 Component Sizing Information, AirLoopHVAC, ZONE WAREHOUSE FINE C  - STORY GROUND PSZ-AC, Adjusted Heating Design Air Flow Rate [m3/s], 0.54429
 Component Sizing Information, AirLoopHVAC, ZONE WAREHOUSE FINE C  - STORY GROUND PSZ-AC, Adjusted Cooling Design Air Flow Rate [m3/s], 0.54429
 Component Sizing Information, AirLoopHVAC, ZONE WAREHOUSE FINE C  - STORY GROUND PSZ-AC, Adjusted Main Design Air Flow Rate [m3/s], 0.54429
 Component Sizing Information, AirLoopHVAC, ZONE WAREHOUSE FINE C  - STORY GROUND PSZ-AC, User Heating Air Flow Ratio [], 1.00000
 Component Sizing Information, AirLoopHVAC, ZONE WAREHOUSE FINE C  - STORY GROUND PSZ-AC, Calculated Heating Air Flow Ratio [], 1.00000
 Component Sizing Information, AirLoopHVAC, ZONE WAREHOUSE FINE C END_A - STORY GROUND PSZ-AC, Sum of Air Terminal Maximum Heating Flow Rates [m3/s], 0.11747
 Component Sizing Information, AirLoopHVAC, ZONE WAREHOUSE FINE C END_A - STORY GROUND PSZ-AC, Sum of Air Terminal Minimum Heating Flow Rates [m3/s], 0.11747
 Component Sizing Information, AirLoopHVAC, ZONE WAREHOUSE FINE C END_A - STORY GROUND PSZ-AC, Sum of Air Terminal Maximum Flow Rates [m3/s], 0.11747
 Component Sizing Information, AirLoopHVAC, ZONE WAREHOUSE FINE C END_A - STORY GROUND PSZ-AC, Adjusted Heating Design Air Flow Rate [m3/s], 0.11747
 Component Sizing Information, AirLoopHVAC, ZONE WAREHOUSE FINE C END_A - STORY GROUND PSZ-AC, Adjusted Cooling Design Air Flow Rate [m3/s], 0.11747
 Component Sizing Information, AirLoopHVAC, ZONE WAREHOUSE FINE C END_A - STORY GROUND PSZ-AC, Adjusted Main Design Air Flow Rate [m3/s], 0.11747
 Component Sizing Information, AirLoopHVAC, ZONE WAREHOUSE FINE C END_A - STORY GROUND PSZ-AC, User Heating Air Flow Ratio [], 1.00000
 Component Sizing Information, AirLoopHVAC, ZONE WAREHOUSE FINE C END_A - STORY GROUND PSZ-AC, Calculated Heating Air Flow Ratio [], 1.00000
 Component Sizing Information, AirLoopHVAC, ZONE WAREHOUSE OFFICE A  - STORY GROUND PSZ-AC, Sum of Air Terminal Maximum Heating Flow Rates [m3/s], 0.28988
 Component Sizing Information, AirLoopHVAC, ZONE WAREHOUSE OFFICE A  - STORY GROUND PSZ-AC, Sum of Air Terminal Minimum Heating Flow Rates [m3/s], 0.28988
 Component Sizing Information, AirLoopHVAC, ZONE WAREHOUSE OFFICE A  - STORY GROUND PSZ-AC, Sum of Air Terminal Maximum Flow Rates [m3/s], 0.28988
 Component Sizing Information, AirLoopHVAC, ZONE WAREHOUSE OFFICE A  - STORY GROUND PSZ-AC, Adjusted Heating Design Air Flow Rate [m3/s], 0.28988
 Component Sizing Information, AirLoopHVAC, ZONE WAREHOUSE OFFICE A  - STORY GROUND PSZ-AC, Adjusted Cooling Design Air Flow Rate [m3/s], 0.28988
 Component Sizing Information, AirLoopHVAC, ZONE WAREHOUSE OFFICE A  - STORY GROUND PSZ-AC, Adjusted Main Design Air Flow Rate [m3/s], 0.28988
 Component Sizing Information, AirLoopHVAC, ZONE WAREHOUSE OFFICE A  - STORY GROUND PSZ-AC, User Heating Air Flow Ratio [], 1.00000
 Component Sizing Information, AirLoopHVAC, ZONE WAREHOUSE OFFICE A  - STORY GROUND PSZ-AC, Calculated Heating Air Flow Ratio [], 1.00000
 Component Sizing Information, AirLoopHVAC, ZONE WAREHOUSE OFFICE B  - STORY GROUND PSZ-AC, Sum of Air Terminal Maximum Heating Flow Rates [m3/s], 2.17191
 Component Sizing Information, AirLoopHVAC, ZONE WAREHOUSE OFFICE B  - STORY GROUND PSZ-AC, Sum of Air Terminal Minimum Heating Flow Rates [m3/s], 2.17191
 Component Sizing Information, AirLoopHVAC, ZONE WAREHOUSE OFFICE B  - STORY GROUND PSZ-AC, Sum of Air Terminal Maximum Flow Rates [m3/s], 2.17191
 Component Sizing Information, AirLoopHVAC, ZONE WAREHOUSE OFFICE B  - STORY GROUND PSZ-AC, Adjusted Heating Design Air Flow Rate [m3/s], 2.17191
 Component Sizing Information, AirLoopHVAC, ZONE WAREHOUSE OFFICE B  - STORY GROUND PSZ-AC, Adjusted Cooling Design Air Flow Rate [m3/s], 2.17191
 Component Sizing Information, AirLoopHVAC, ZONE WAREHOUSE OFFICE B  - STORY GROUND PSZ-AC, Adjusted Main Design Air Flow Rate [m3/s], 2.17191
 Component Sizing Information, AirLoopHVAC, ZONE WAREHOUSE OFFICE B  - STORY GROUND PSZ-AC, User Heating Air Flow Ratio [], 1.00000
 Component Sizing Information, AirLoopHVAC, ZONE WAREHOUSE OFFICE B  - STORY GROUND PSZ-AC, Calculated Heating Air Flow Ratio [], 1.00000
 Component Sizing Information, AirLoopHVAC, ZONE WAREHOUSE OFFICE C  - STORY GROUND PSZ-AC, Sum of Air Terminal Maximum Heating Flow Rates [m3/s], 0.22019
 Component Sizing Information, AirLoopHVAC, ZONE WAREHOUSE OFFICE C  - STORY GROUND PSZ-AC, Sum of Air Terminal Minimum Heating Flow Rates [m3/s], 0.22019
 Component Sizing Information, AirLoopHVAC, ZONE WAREHOUSE OFFICE C  - STORY GROUND PSZ-AC, Sum of Air Terminal Maximum Flow Rates [m3/s], 0.22019
 Component Sizing Information, AirLoopHVAC, ZONE WAREHOUSE OFFICE C  - STORY GROUND PSZ-AC, Adjusted Heating Design Air Flow Rate [m3/s], 0.22019
 Component Sizing Information, AirLoopHVAC, ZONE WAREHOUSE OFFICE C  - STORY GROUND PSZ-AC, Adjusted Cooling Design Air Flow Rate [m3/s], 0.22019
 Component Sizing Information, AirLoopHVAC, ZONE WAREHOUSE OFFICE C  - STORY GROUND PSZ-AC, Adjusted Main Design Air Flow Rate [m3/s], 0.22019
 Component Sizing Information, AirLoopHVAC, ZONE WAREHOUSE OFFICE C  - STORY GROUND PSZ-AC, User Heating Air Flow Ratio [], 1.00000
 Component Sizing Information, AirLoopHVAC, ZONE WAREHOUSE OFFICE C  - STORY GROUND PSZ-AC, Calculated Heating Air Flow Ratio [], 1.00000
 Component Sizing Information, AirLoopHVAC, ZONE WAREHOUSE FINE A  - STORY GROUND PSZ-AC, Design Supply Air Flow Rate [m3/s], 0.54314
 Component Sizing Information, AirLoopHVAC, ZONE WAREHOUSE FINE A END_A - STORY GROUND PSZ-AC, Design Supply Air Flow Rate [m3/s], 0.11729
 Component Sizing Information, AirLoopHVAC, ZONE WAREHOUSE FINE B  - STORY GROUND PSZ-AC, Design Supply Air Flow Rate [m3/s], 2.17019
 Component Sizing Information, AirLoopHVAC, ZONE WAREHOUSE FINE B END_A - STORY GROUND PSZ-AC, Design Supply Air Flow Rate [m3/s], 0.59521
 Component Sizing Information, AirLoopHVAC, ZONE WAREHOUSE FINE C  - STORY GROUND PSZ-AC, Design Supply Air Flow Rate [m3/s], 0.54429
 Component Sizing Information, AirLoopHVAC, ZONE WAREHOUSE FINE C END_A - STORY GROUND PSZ-AC, Design Supply Air Flow Rate [m3/s], 0.11747
 Component Sizing Information, AirLoopHVAC, ZONE WAREHOUSE OFFICE A  - STORY GROUND PSZ-AC, Design Supply Air Flow Rate [m3/s], 0.28988
 Component Sizing Information, AirLoopHVAC, ZONE WAREHOUSE OFFICE B  - STORY GROUND PSZ-AC, Design Supply Air Flow Rate [m3/s], 2.17191
 Component Sizing Information, AirLoopHVAC, ZONE WAREHOUSE OFFICE C  - STORY GROUND PSZ-AC, Design Supply Air Flow Rate [m3/s], 0.22019
!<Controller:MechanicalVentilation>,Name,Availability Schedule Name,Demand Controlled Ventilation {Yes/No},System Outdoor Air Method,Zone Maximum Outdoor Air Fraction,Number of Zones,Zone Name,DSOA Name,DSZAD Name
 Controller:MechanicalVentilation,CONTROLLER MECHANICAL VENTILATION 1,ALWAYS ON DISCRETE,No,ZoneSum,1.00,1,ZONE WAREHOUSE FINE A  - STORY GROUND,WAREHOUSE FINE VENTILATION,
 Controller:MechanicalVentilation,CONTROLLER MECHANICAL VENTILATION 2,ALWAYS ON DISCRETE,No,ZoneSum,1.00,1,ZONE WAREHOUSE FINE A END_A - STORY GROUND,WAREHOUSE FINE VENTILATION,
 Controller:MechanicalVentilation,CONTROLLER MECHANICAL VENTILATION 3,ALWAYS ON DISCRETE,No,ZoneSum,1.00,1,ZONE WAREHOUSE FINE B  - STORY GROUND,WAREHOUSE FINE VENTILATION,
 Controller:MechanicalVentilation,CONTROLLER MECHANICAL VENTILATION 4,ALWAYS ON DISCRETE,No,ZoneSum,1.00,1,ZONE WAREHOUSE FINE B END_A - STORY GROUND,WAREHOUSE FINE VENTILATION,
 Controller:MechanicalVentilation,CONTROLLER MECHANICAL VENTILATION 5,ALWAYS ON DISCRETE,No,ZoneSum,1.00,1,ZONE WAREHOUSE FINE C  - STORY GROUND,WAREHOUSE FINE VENTILATION,
 Controller:MechanicalVentilation,CONTROLLER MECHANICAL VENTILATION 6,ALWAYS ON DISCRETE,No,ZoneSum,1.00,1,ZONE WAREHOUSE FINE C END_A - STORY GROUND,WAREHOUSE FINE VENTILATION,
 Controller:MechanicalVentilation,CONTROLLER MECHANICAL VENTILATION 7,ALWAYS ON DISCRETE,No,ZoneSum,1.00,1,ZONE WAREHOUSE OFFICE A  - STORY GROUND,WAREHOUSE OFFICE VENTILATION,
 Controller:MechanicalVentilation,CONTROLLER MECHANICAL VENTILATION 8,ALWAYS ON DISCRETE,No,ZoneSum,1.00,1,ZONE WAREHOUSE OFFICE B  - STORY GROUND,WAREHOUSE OFFICE VENTILATION,
 Controller:MechanicalVentilation,CONTROLLER MECHANICAL VENTILATION 9,ALWAYS ON DISCRETE,No,ZoneSum,1.00,1,ZONE WAREHOUSE OFFICE C  - STORY GROUND,WAREHOUSE OFFICE VENTILATION,
 Component Sizing Information, Controller:OutdoorAir, ZONE WAREHOUSE FINE A  - STORY GROUND PSZ-AC OA SYSTEM CONTROLLER, Maximum Outdoor Air Flow Rate [m3/s], 0.54314
 Component Sizing Information, Controller:OutdoorAir, ZONE WAREHOUSE FINE A  - STORY GROUND PSZ-AC OA SYSTEM CONTROLLER, Minimum Outdoor Air Flow Rate [m3/s], 4.74848E-002
 Component Sizing Information, AirLoopHVAC:UnitarySystem, ZONE WAREHOUSE FINE A  - STORY GROUND PSZ-AC UNITARY AC, Design Size Supply Air Flow Rate [m3/s], 0.54314
 Component Sizing Information, AirLoopHVAC:UnitarySystem, ZONE WAREHOUSE FINE A  - STORY GROUND PSZ-AC UNITARY AC, Design Size Heating Supply Air Flow Rate [m3/s], 0.54314
 Component Sizing Information, AirLoopHVAC:UnitarySystem, ZONE WAREHOUSE FINE A  - STORY GROUND PSZ-AC UNITARY AC, Design Size Cooling Supply Air Flow Rate [m3/s], 0.54314
 Component Sizing Information, AirLoopHVAC:UnitarySystem, ZONE WAREHOUSE FINE A  - STORY GROUND PSZ-AC UNITARY AC, User-Specified No Load Supply Air Flow Rate [m3/s], 0.00000
 Component Sizing Information, AirLoopHVAC:UnitarySystem, ZONE WAREHOUSE FINE A  - STORY GROUND PSZ-AC UNITARY AC, Design Size Nominal Cooling Capacity [W], 9654.40794
 Component Sizing Information, AirLoopHVAC:UnitarySystem, ZONE WAREHOUSE FINE A  - STORY GROUND PSZ-AC UNITARY AC, Design Size Nominal Heating Capacity [W], 24174.56712
 Component Sizing Information, AirLoopHVAC:UnitarySystem, ZONE WAREHOUSE FINE A  - STORY GROUND PSZ-AC UNITARY AC, Design Size Maximum Supply Air Temperature [C], 50.00000
 Component Sizing Information, AirLoopHVAC:UnitarySystem, ZONE WAREHOUSE FINE A  - STORY GROUND PSZ-AC UNITARY AC, User-Specified Maximum Supply Air Temperature [C], 80.00000
 Component Sizing Information, AirLoopHVAC:UnitarySystem, ZONE WAREHOUSE FINE A  - STORY GROUND PSZ-AC UNITARY AC, User-Specified Supplemental Heating Coil Nominal Capacity [W], 0.00000
 Component Sizing Information, AirLoopHVAC:UnitarySystem, ZONE WAREHOUSE FINE A  - STORY GROUND PSZ-AC UNITARY AC, Fraction of Supply Air Flow That Goes Through the Controlling Zone, 1.00000
 Component Sizing Information, Coil:Cooling:DX:SingleSpeed, ZONE WAREHOUSE FINE A  - STORY GROUND PSZ-AC 1SPD DX AC CLG COIL, Design Size Rated Air Flow Rate [m3/s], 0.54314
 Component Sizing Information, Coil:Cooling:DX:SingleSpeed, ZONE WAREHOUSE FINE A  - STORY GROUND PSZ-AC 1SPD DX AC CLG COIL, Design Size Gross Rated Total Cooling Capacity [W], 9654.40794
 Component Sizing Information, Coil:Cooling:DX:SingleSpeed, ZONE WAREHOUSE FINE A  - STORY GROUND PSZ-AC 1SPD DX AC CLG COIL, Design Size Gross Rated Sensible Heat Ratio, 0.80039
! <DX Cooling Coil Standard Rating Information>, Component Type, Component Name, Standard Rating (Net) Cooling Capacity {W}, Standard Rated Net COP {W/W}, EER {Btu/W-h}, SEER User {Btu/W-h}, SEER Standard {Btu/W-h}, IEER {Btu/W-h}
 DX Cooling Coil Standard Rating Information, Coil:Cooling:DX:SingleSpeed, ZONE WAREHOUSE FINE A  - STORY GROUND PSZ-AC 1SPD DX AC CLG COIL, 9233.4, 2.54, 8.66, 9.96, 9.11, 9.55
 DX Cooling Coil Standard Rating Information, Coil:Cooling:DX:SingleSpeed, ZONE WAREHOUSE FINE A  - STORY GROUND PSZ-AC 1SPD DX AC CLG COIL, 9145.9, 2.45, 8.38, 9.61, 9.04,  
 Component Sizing Information, Coil:Heating:Fuel, ZONE WAREHOUSE FINE A  - STORY GROUND PSZ-AC GAS HTG COIL, Design Size Nominal Capacity [W], 24174.56712
 Component Sizing Information, Fan:OnOff, ZONE WAREHOUSE FINE A  - STORY GROUND PSZ-AC FAN, Design Size Maximum Flow Rate [m3/s], 0.54314
 Component Sizing Information, Coil:Heating:Electric, ZONE WAREHOUSE FINE A  - STORY GROUND PSZ-AC NO HEAT, User-Specified Nominal Capacity [W], 0.00000
 Component Sizing Information, Controller:OutdoorAir, ZONE WAREHOUSE FINE A END_A - STORY GROUND PSZ-AC OA SYSTEM CONTROLLER, Maximum Outdoor Air Flow Rate [m3/s], 0.11729
 Component Sizing Information, Controller:OutdoorAir, ZONE WAREHOUSE FINE A END_A - STORY GROUND PSZ-AC OA SYSTEM CONTROLLER, Minimum Outdoor Air Flow Rate [m3/s], 5.30941E-003
 Component Sizing Information, AirLoopHVAC:UnitarySystem, ZONE WAREHOUSE FINE A END_A - STORY GROUND PSZ-AC UNITARY AC, Design Size Supply Air Flow Rate [m3/s], 0.11729
 Component Sizing Information, AirLoopHVAC:UnitarySystem, ZONE WAREHOUSE FINE A END_A - STORY GROUND PSZ-AC UNITARY AC, Design Size Heating Supply Air Flow Rate [m3/s], 0.11729
 Component Sizing Information, AirLoopHVAC:UnitarySystem, ZONE WAREHOUSE FINE A END_A - STORY GROUND PSZ-AC UNITARY AC, Design Size Cooling Supply Air Flow Rate [m3/s], 0.11729
 Component Sizing Information, AirLoopHVAC:UnitarySystem, ZONE WAREHOUSE FINE A END_A - STORY GROUND PSZ-AC UNITARY AC, User-Specified No Load Supply Air Flow Rate [m3/s], 0.00000
 Component Sizing Information, AirLoopHVAC:UnitarySystem, ZONE WAREHOUSE FINE A END_A - STORY GROUND PSZ-AC UNITARY AC, Design Size Nominal Cooling Capacity [W], 2093.86226
 Component Sizing Information, AirLoopHVAC:UnitarySystem, ZONE WAREHOUSE FINE A END_A - STORY GROUND PSZ-AC UNITARY AC, Design Size Nominal Heating Capacity [W], 5051.26323
 Component Sizing Information, AirLoopHVAC:UnitarySystem, ZONE WAREHOUSE FINE A END_A - STORY GROUND PSZ-AC UNITARY AC, Design Size Maximum Supply Air Temperature [C], 50.00000
 Component Sizing Information, AirLoopHVAC:UnitarySystem, ZONE WAREHOUSE FINE A END_A - STORY GROUND PSZ-AC UNITARY AC, User-Specified Maximum Supply Air Temperature [C], 80.00000
 Component Sizing Information, AirLoopHVAC:UnitarySystem, ZONE WAREHOUSE FINE A END_A - STORY GROUND PSZ-AC UNITARY AC, User-Specified Supplemental Heating Coil Nominal Capacity [W], 0.00000
 Component Sizing Information, AirLoopHVAC:UnitarySystem, ZONE WAREHOUSE FINE A END_A - STORY GROUND PSZ-AC UNITARY AC, Fraction of Supply Air Flow That Goes Through the Controlling Zone, 1.00000
 Component Sizing Information, Coil:Cooling:DX:SingleSpeed, ZONE WAREHOUSE FINE A END_A - STORY GROUND PSZ-AC 1SPD DX AC CLG COIL, Design Size Rated Air Flow Rate [m3/s], 0.11729
 Component Sizing Information, Coil:Cooling:DX:SingleSpeed, ZONE WAREHOUSE FINE A END_A - STORY GROUND PSZ-AC 1SPD DX AC CLG COIL, Design Size Gross Rated Total Cooling Capacity [W], 2093.86226
[...]
 Warmup Convergence Information,ZONE WAREHOUSE BULK B END_B - STORY GROUND,SizingPeriod: KODIAK OCTOBER .4% CONDNS WB=>MCDB,3.6475504420E-002,4.3946060174E-002,Pass,Pass,0.0000000000,0.0000000000,Pass,Pass
 Warmup Convergence Information,ZONE WAREHOUSE BULK B END_B - STORY TOP,SizingPeriod: KODIAK OCTOBER .4% CONDNS WB=>MCDB,7.4343233244E-002,8.9282408382E-002,Pass,Pass,0.0000000000,0.0000000000,Pass,Pass
 Warmup Convergence Information,ZONE WAREHOUSE BULK C  - STORY GROUND,SizingPeriod: KODIAK OCTOBER .4% CONDNS WB=>MCDB,2.6372117955E-002,1.7091823576E-002,Pass,Pass,0.0000000000,0.0000000000,Pass,Pass
 Warmup Convergence Information,ZONE WAREHOUSE BULK C  - STORY TOP,SizingPeriod: KODIAK OCTOBER .4% CONDNS WB=>MCDB,5.7192047957E-002,3.6586274323E-002,Pass,Pass,0.0000000000,0.0000000000,Pass,Pass
 Warmup Convergence Information,ZONE WAREHOUSE BULK C END_A - STORY TOP,SizingPeriod: KODIAK OCTOBER .4% CONDNS WB=>MCDB,9.3663225676E-002,5.9581254924E-002,Pass,Pass,0.0000000000,0.0000000000,Pass,Pass
 Warmup Convergence Information,ZONE WAREHOUSE BULK C END_B - STORY GROUND,SizingPeriod: KODIAK OCTOBER .4% CONDNS WB=>MCDB,4.4973497564E-002,4.7354771346E-002,Pass,Pass,0.0000000000,0.0000000000,Pass,Pass
 Warmup Convergence Information,ZONE WAREHOUSE BULK C END_B - STORY TOP,SizingPeriod: KODIAK OCTOBER .4% CONDNS WB=>MCDB,7.4613138969E-002,7.8378818937E-002,Pass,Pass,0.0000000000,0.0000000000,Pass,Pass
 Warmup Convergence Information,ZONE WAREHOUSE FINE A  - STORY GROUND,SizingPeriod: KODIAK OCTOBER .4% CONDNS WB=>MCDB,6.0370883817E-002,4.0564609409E-002,Pass,Pass,2.8415217740E-002,4.4296836803E-002,Pass,Pass
 Warmup Convergence Information,ZONE WAREHOUSE FINE A END_A - STORY GROUND,SizingPeriod: KODIAK OCTOBER .4% CONDNS WB=>MCDB,7.8206675504E-002,5.8213263212E-002,Pass,Pass,1.8008730659E-002,2.8766857115E-002,Pass,Pass
 Warmup Convergence Information,ZONE WAREHOUSE FINE B  - STORY GROUND,SizingPeriod: KODIAK OCTOBER .4% CONDNS WB=>MCDB,1.1596732020E-002,5.1209392901E-003,Pass,Pass,6.7916356505E-003,4.3163336417E-003,Pass,Pass
 Warmup Convergence Information,ZONE WAREHOUSE FINE B END_A - STORY GROUND,SizingPeriod: KODIAK OCTOBER .4% CONDNS WB=>MCDB,4.3387584243E-002,3.0925429953E-002,Pass,Pass,0.1810933072,0.6369291347,Pass,Pass
 Warmup Convergence Information,ZONE WAREHOUSE FINE C  - STORY GROUND,SizingPeriod: KODIAK OCTOBER .4% CONDNS WB=>MCDB,2.5762062473E-002,1.4349700536E-002,Pass,Pass,0.1380600283,0.4556797636,Pass,Pass
 Warmup Convergence Information,ZONE WAREHOUSE FINE C END_A - STORY GROUND,SizingPeriod: KODIAK OCTOBER .4% CONDNS WB=>MCDB,2.8802531015E-002,4.1524153010E-002,Pass,Pass,3.0154404941E-002,4.0674140696E-002,Pass,Pass
 Warmup Convergence Information,ZONE WAREHOUSE OFFICE A  - STORY GROUND,SizingPeriod: KODIAK OCTOBER .4% CONDNS WB=>MCDB,4.3222416453E-002,4.8323219931E-002,Pass,Pass,8.3521167202E-002,0.3231091772,Pass,Pass
 Warmup Convergence Information,ZONE WAREHOUSE OFFICE B  - STORY GROUND,SizingPeriod: KODIAK OCTOBER .4% CONDNS WB=>MCDB,5.1678082247E-002,0.2497697969,Pass,Pass,0.1305708988,1.1335224241,Pass,Pass
 Warmup Convergence Information,ZONE WAREHOUSE OFFICE C  - STORY GROUND,SizingPeriod: KODIAK OCTOBER .4% CONDNS WB=>MCDB,3.3517516736E-002,0.1328432613,Pass,Pass,6.4171050844E-002,0.2362309750,Pass,Pass
Environment,KODIAK SEPTEMBER .4% CONDNS DB=>MCWB,SizingPeriod:DesignDay,09/21,09/21,SummerDesignDay,1,N/A,N/A,N/A,N/A,N/A,N/A,Clark and Allen
Environment:Daylight Saving,No,SizingPeriod:DesignDay
Environment:Design Day Data,18.00,6.40,DefaultMultipliers,Wetbulb,12.50,{C},100917,320,5.0,0.00,No,No
Environment:Design Day Misc,264,1151.1,0.1777,9.2179E-002,1.0,6.63,1.0,ASHRAETau
Environment:WarmupDays, 10
 Warmup Convergence Information,ZONE WAREHOUSE BULK A  - STORY GROUND,SizingPeriod: KODIAK SEPTEMBER .4% CONDNS DB=>MCWB,6.3571289687E-002,3.7985054912E-002,Pass,Pass,0.0000000000,0.0000000000,Pass,Pass
 Warmup Convergence Information,ZONE WAREHOUSE BULK A  - STORY TOP,SizingPeriod: KODIAK SEPTEMBER .4% CONDNS DB=>MCWB,0.1504415857,0.1184945804,Pass,Pass,0.0000000000,0.0000000000,Pass,Pass
 Warmup Convergence Information,ZONE WAREHOUSE BULK A END_A - STORY TOP,SizingPeriod: KODIAK SEPTEMBER .4% CONDNS DB=>MCWB,0.1666603919,0.1177501652,Pass,Pass,0.0000000000,0.0000000000,Pass,Pass
 Warmup Convergence Information,ZONE WAREHOUSE BULK A END_B - STORY GROUND,SizingPeriod: KODIAK SEPTEMBER .4% CONDNS DB=>MCWB,8.1012412077E-002,6.1854033813E-002,Pass,Pass,0.0000000000,0.0000000000,Pass,Pass
 Warmup Convergence Information,ZONE WAREHOUSE BULK A END_B - STORY TOP,SizingPeriod: KODIAK SEPTEMBER .4% CONDNS DB=>MCWB,0.1549704848,0.1298969745,Pass,Pass,0.0000000000,0.0000000000,Pass,Pass
 Warmup Convergence Information,ZONE WAREHOUSE BULK B  - STORY GROUND,SizingPeriod: KODIAK SEPTEMBER .4% CONDNS DB=>MCWB,1.4085893917E-002,1.1567392769E-002,Pass,Pass,0.0000000000,0.0000000000,Pass,Pass
 Warmup Convergence Information,ZONE WAREHOUSE BULK B  - STORY TOP,SizingPeriod: KODIAK SEPTEMBER .4% CONDNS DB=>MCWB,6.1819425184E-002,4.0182923042E-002,Pass,Pass,0.0000000000,0.0000000000,Pass,Pass
 Warmup Convergence Information,ZONE WAREHOUSE BULK B END_A - STORY TOP,SizingPeriod: KODIAK SEPTEMBER .4% CONDNS DB=>MCWB,0.1210613561,9.7107692196E-002,Pass,Pass,0.0000000000,0.0000000000,Pass,Pass
 Warmup Convergence Information,ZONE WAREHOUSE BULK B END_B - STORY GROUND,SizingPeriod: KODIAK SEPTEMBER .4% CONDNS DB=>MCWB,4.4601999163E-002,5.1223364855E-002,Pass,Pass,0.0000000000,0.0000000000,Pass,Pass
 Warmup Convergence Information,ZONE WAREHOUSE BULK B END_B - STORY TOP,SizingPeriod: KODIAK SEPTEMBER .4% CONDNS DB=>MCWB,9.8642940134E-002,0.1122253127,Pass,Pass,0.0000000000,0.0000000000,Pass,Pass
 Warmup Convergence Information,ZONE WAREHOUSE BULK C  - STORY GROUND,SizingPeriod: KODIAK SEPTEMBER .4% CONDNS DB=>MCWB,2.8371610659E-002,1.7940856656E-002,Pass,Pass,0.0000000000,0.0000000000,Pass,Pass
 Warmup Convergence Information,ZONE WAREHOUSE BULK C  - STORY TOP,SizingPeriod: KODIAK SEPTEMBER .4% CONDNS DB=>MCWB,6.6567812508E-002,4.1788456967E-002,Pass,Pass,0.0000000000,0.0000000000,Pass,Pass
 Warmup Convergence Information,ZONE WAREHOUSE BULK C END_A - STORY TOP,SizingPeriod: KODIAK SEPTEMBER .4% CONDNS DB=>MCWB,0.1155095272,7.6749225629E-002,Pass,Pass,0.0000000000,0.0000000000,Pass,Pass
 Warmup Convergence Information,ZONE WAREHOUSE BULK C END_B - STORY GROUND,SizingPeriod: KODIAK SEPTEMBER .4% CONDNS DB=>MCWB,5.3087582487E-002,5.3837833097E-002,Pass,Pass,0.0000000000,0.0000000000,Pass,Pass
 Warmup Convergence Information,ZONE WAREHOUSE BULK C END_B - STORY TOP,SizingPeriod: KODIAK SEPTEMBER .4% CONDNS DB=>MCWB,9.4985147377E-002,9.5831421049E-002,Pass,Pass,0.0000000000,0.0000000000,Pass,Pass
 Warmup Convergence Information,ZONE WAREHOUSE FINE A  - STORY GROUND,SizingPeriod: KODIAK SEPTEMBER .4% CONDNS DB=>MCWB,3.2634350459E-002,3.7484205787E-002,Pass,Pass,0.1897857209,0.9230254748,Pass,Pass
 Warmup Convergence Information,ZONE WAREHOUSE FINE A END_A - STORY GROUND,SizingPeriod: KODIAK SEPTEMBER .4% CONDNS DB=>MCWB,7.0544304129E-002,5.2583778663E-002,Pass,Pass,5.9401404964E-002,0.2604239972,Pass,Pass
 Warmup Convergence Information,ZONE WAREHOUSE FINE B  - STORY GROUND,SizingPeriod: KODIAK SEPTEMBER .4% CONDNS DB=>MCWB,4.1599408555E-007,1.5019442118E-006,Pass,Pass,3.8508134026E-003,1.7140788092E-003,Pass,Pass
 Warmup Convergence Information,ZONE WAREHOUSE FINE B END_A - STORY GROUND,SizingPeriod: KODIAK SEPTEMBER .4% CONDNS DB=>MCWB,4.8660433882E-002,3.6858994494E-002,Pass,Pass,0.4664074411,2.9926437726,Pass,Pass
 Warmup Convergence Information,ZONE WAREHOUSE FINE C  - STORY GROUND,SizingPeriod: KODIAK SEPTEMBER .4% CONDNS DB=>MCWB,2.7840206798E-002,1.5151707269E-002,Pass,Pass,3.1006133591E-002,2.1974177386E-002,Pass,Pass
 Warmup Convergence Information,ZONE WAREHOUSE FINE C END_A - STORY GROUND,SizingPeriod: KODIAK SEPTEMBER .4% CONDNS DB=>MCWB,6.0073278141E-002,3.8447769604E-002,Pass,Pass,7.3473848998E-003,7.6908037791E-003,Pass,Pass
 Warmup Convergence Information,ZONE WAREHOUSE OFFICE A  - STORY GROUND,SizingPeriod: KODIAK SEPTEMBER .4% CONDNS DB=>MCWB,5.9846240166E-002,0.2320885134,Pass,Pass,0.1206996120,1.1008392018,Pass,Pass
 Warmup Convergence Information,ZONE WAREHOUSE OFFICE B  - STORY GROUND,SizingPeriod: KODIAK SEPTEMBER .4% CONDNS DB=>MCWB,8.3332994787E-002,0.3558316491,Pass,Pass,0.2237372774,1.4941543528,Pass,Pass
 Warmup Convergence Information,ZONE WAREHOUSE OFFICE C  - STORY GROUND,SizingPeriod: KODIAK SEPTEMBER .4% CONDNS DB=>MCWB,1.7443733192E-002,3.9747946370E-002,Pass,Pass,9.3417819867E-002,0.4098791763,Pass,Pass
Environment,KODIAK SEPTEMBER .4% CONDNS WB=>MCDB,SizingPeriod:DesignDay,09/21,09/21,SummerDesignDay,1,N/A,N/A,N/A,N/A,N/A,N/A,Clark and Allen
Environment:Daylight Saving,No,SizingPeriod:DesignDay
Environment:Design Day Data,16.20,6.40,DefaultMultipliers,Wetbulb,13.80,{C},100917,320,5.0,0.00,No,No
Environment:Design Day Misc,264,1151.1,0.1777,9.2179E-002,1.0,6.63,1.0,ASHRAETau
Environment:WarmupDays, 12
 Warmup Convergence Information,ZONE WAREHOUSE BULK A  - STORY GROUND,SizingPeriod: KODIAK SEPTEMBER .4% CONDNS WB=>MCDB,6.3762745193E-002,3.8294981682E-002,Pass,Pass,0.0000000000,0.0000000000,Pass,Pass
 Warmup Convergence Information,ZONE WAREHOUSE BULK A  - STORY TOP,SizingPeriod: KODIAK SEPTEMBER .4% CONDNS WB=>MCDB,0.1506307558,0.1184063036,Pass,Pass,0.0000000000,0.0000000000,Pass,Pass
 Warmup Convergence Information,ZONE WAREHOUSE BULK A END_A - STORY TOP,SizingPeriod: KODIAK SEPTEMBER .4% CONDNS WB=>MCDB,0.1668039515,0.1175296360,Pass,Pass,0.0000000000,0.0000000000,Pass,Pass
 Warmup Convergence Information,ZONE WAREHOUSE BULK A END_B - STORY GROUND,SizingPeriod: KODIAK SEPTEMBER .4% CONDNS WB=>MCDB,8.1154066416E-002,6.1996543019E-002,Pass,Pass,0.0000000000,0.0000000000,Pass,Pass
 Warmup Convergence Information,ZONE WAREHOUSE BULK A END_B - STORY TOP,SizingPeriod: KODIAK SEPTEMBER .4% CONDNS WB=>MCDB,0.1551362457,0.1300538055,Pass,Pass,0.0000000000,0.0000000000,Pass,Pass
 Warmup Convergence Information,ZONE WAREHOUSE BULK B  - STORY GROUND,SizingPeriod: KODIAK SEPTEMBER .4% CONDNS WB=>MCDB,1.4479512257E-002,1.1810920746E-002,Pass,Pass,0.0000000000,0.0000000000,Pass,Pass
 Warmup Convergence Information,ZONE WAREHOUSE BULK B  - STORY TOP,SizingPeriod: KODIAK SEPTEMBER .4% CONDNS WB=>MCDB,6.1957953537E-002,4.0019104386E-002,Pass,Pass,0.0000000000,0.0000000000,Pass,Pass
 Warmup Convergence Information,ZONE WAREHOUSE BULK B END_A - STORY TOP,SizingPeriod: KODIAK SEPTEMBER .4% CONDNS WB=>MCDB,0.1211445798,9.6913177670E-002,Pass,Pass,0.0000000000,0.0000000000,Pass,Pass
 Warmup Convergence Information,ZONE WAREHOUSE BULK B END_B - STORY GROUND,SizingPeriod: KODIAK SEPTEMBER .4% CONDNS WB=>MCDB,4.4584143373E-002,5.1137670414E-002,Pass,Pass,0.0000000000,0.0000000000,Pass,Pass
 Warmup Convergence Information,ZONE WAREHOUSE BULK B END_B - STORY TOP,SizingPeriod: KODIAK SEPTEMBER .4% CONDNS WB=>MCDB,9.8664904356E-002,0.1121120841,Pass,Pass,0.0000000000,0.0000000000,Pass,Pass
 Warmup Convergence Information,ZONE WAREHOUSE BULK C  - STORY GROUND,SizingPeriod: KODIAK SEPTEMBER .4% CONDNS WB=>MCDB,2.8474626518E-002,1.8092228371E-002,Pass,Pass,0.0000000000,0.0000000000,Pass,Pass
 Warmup Convergence Information,ZONE WAREHOUSE BULK C  - STORY TOP,SizingPeriod: KODIAK SEPTEMBER .4% CONDNS WB=>MCDB,6.6750955968E-002,4.1802355842E-002,Pass,Pass,0.0000000000,0.0000000000,Pass,Pass
 Warmup Convergence Information,ZONE WAREHOUSE BULK C END_A - STORY TOP,SizingPeriod: KODIAK SEPTEMBER .4% CONDNS WB=>MCDB,0.1157810293,7.6515889030E-002,Pass,Pass,0.0000000000,0.0000000000,Pass,Pass
 Warmup Convergence Information,ZONE WAREHOUSE BULK C END_B - STORY GROUND,SizingPeriod: KODIAK SEPTEMBER .4% CONDNS WB=>MCDB,5.3023954566E-002,5.3781790515E-002,Pass,Pass,0.0000000000,0.0000000000,Pass,Pass
 Warmup Convergence Information,ZONE WAREHOUSE BULK C END_B - STORY TOP,SizingPeriod: KODIAK SEPTEMBER .4% CONDNS WB=>MCDB,9.5112447307E-002,9.5853302795E-002,Pass,Pass,0.0000000000,0.0000000000,Pass,Pass
 Warmup Convergence Information,ZONE WAREHOUSE FINE A  - STORY GROUND,SizingPeriod: KODIAK SEPTEMBER .4% CONDNS WB=>MCDB,4.5317144393E-002,4.0714500032E-002,Pass,Pass,7.7776551021E-002,0.2601481199,Pass,Pass
 Warmup Convergence Information,ZONE WAREHOUSE FINE A END_A - STORY GROUND,SizingPeriod: KODIAK SEPTEMBER .4% CONDNS WB=>MCDB,8.3787567776E-002,5.0453340274E-002,Pass,Pass,8.1714867375E-003,1.2100698682E-002,Pass,Pass
 Warmup Convergence Information,ZONE WAREHOUSE FINE B  - STORY GROUND,SizingPeriod: KODIAK SEPTEMBER .4% CONDNS WB=>MCDB,4.5191644897E-006,1.4830107913E-005,Pass,Pass,4.3053159982E-003,1.9418995404E-003,Pass,Pass
 Warmup Convergence Information,ZONE WAREHOUSE FINE B END_A - STORY GROUND,SizingPeriod: KODIAK SEPTEMBER .4% CONDNS WB=>MCDB,5.1085872316E-002,3.7924594839E-002,Pass,Pass,0.2806290832,0.8866524462,Pass,Pass
 Warmup Convergence Information,ZONE WAREHOUSE FINE C  - STORY GROUND,SizingPeriod: KODIAK SEPTEMBER .4% CONDNS WB=>MCDB,2.7700824034E-002,1.5101180825E-002,Pass,Pass,0.1876731011,0.6804870403,Pass,Pass
 Warmup Convergence Information,ZONE WAREHOUSE FINE C END_A - STORY GROUND,SizingPeriod: KODIAK SEPTEMBER .4% CONDNS WB=>MCDB,5.9888811598E-002,3.8156248258E-002,Pass,Pass,7.7140114724E-003,8.1371974943E-003,Pass,Pass
 Warmup Convergence Information,ZONE WAREHOUSE OFFICE A  - STORY GROUND,SizingPeriod: KODIAK SEPTEMBER .4% CONDNS WB=>MCDB,5.0243241716E-002,0.1951566215,Pass,Pass,0.1093047907,0.8888030326,Pass,Pass
 Warmup Convergence Information,ZONE WAREHOUSE OFFICE B  - STORY GROUND,SizingPeriod: KODIAK SEPTEMBER .4% CONDNS WB=>MCDB,8.3346077179E-002,0.3928171346,Pass,Pass,0.2310013653,1.2343647282,Pass,Pass
 Warmup Convergence Information,ZONE WAREHOUSE OFFICE C  - STORY GROUND,SizingPeriod: KODIAK SEPTEMBER .4% CONDNS WB=>MCDB,1.9517113349E-002,2.4314589392E-002,Pass,Pass,7.5687224578E-002,0.2837733103,Pass,Pass
Environment,KODIAK ANN CLG .4% CONDNS DB=>MWB HVAC Sizing Pass 1,SizingPeriod:DesignDay,08/21,08/21,SummerDesignDay,1,N/A,N/A,N/A,N/A,N/A,N/A,Clark and Allen
Environment:Daylight Saving,No,SizingPeriod:DesignDay
Environment,KODIAK ANN CLG .4% CONDNS WB=>MDB HVAC Sizing Pass 1,SizingPeriod:DesignDay,08/21,08/21,SummerDesignDay,1,N/A,N/A,N/A,N/A,N/A,N/A,Clark and Allen
Environment:Daylight Saving,No,SizingPeriod:DesignDay
Environment,KODIAK ANN HTG 99.6% CONDNS DB HVAC Sizing Pass 1,SizingPeriod:DesignDay,01/21,01/21,WinterDesignDay,1,N/A,N/A,N/A,N/A,N/A,N/A,Clark and Allen
Environment:Daylight Saving,No,SizingPeriod:DesignDay
Environment,KODIAK APRIL .4% CONDNS DB=>MCWB HVAC Sizing Pass 1,SizingPeriod:DesignDay,04/21,04/21,SummerDesignDay,1,N/A,N/A,N/A,N/A,N/A,N/A,Clark and Allen
Environment:Daylight Saving,No,SizingPeriod:DesignDay
Environment,KODIAK APRIL .4% CONDNS WB=>MCDB HVAC Sizing Pass 1,SizingPeriod:DesignDay,04/21,04/21,SummerDesignDay,1,N/A,N/A,N/A,N/A,N/A,N/A,Clark and Allen
Environment:Daylight Saving,No,SizingPeriod:DesignDay
Environment,KODIAK AUGUST .4% CONDNS DB=>MCWB HVAC Sizing Pass 1,SizingPeriod:DesignDay,08/21,08/21,SummerDesignDay,1,N/A,N/A,N/A,N/A,N/A,N/A,Clark and Allen
Environment:Daylight Saving,No,SizingPeriod:DesignDay
Environment,KODIAK AUGUST .4% CONDNS WB=>MCDB HVAC Sizing Pass 1,SizingPeriod:DesignDay,08/21,08/21,SummerDesignDay,1,N/A,N/A,N/A,N/A,N/A,N/A,Clark and Allen
Environment:Daylight Saving,No,SizingPeriod:DesignDay
Environment,KODIAK DECEMBER .4% CONDNS DB=>MCWB HVAC Sizing Pass 1,SizingPeriod:DesignDay,12/21,12/21,SummerDesignDay,1,N/A,N/A,N/A,N/A,N/A,N/A,Clark and Allen
Environment:Daylight Saving,No,SizingPeriod:DesignDay
Environment,KODIAK DECEMBER .4% CONDNS WB=>MCDB HVAC Sizing Pass 1,SizingPeriod:DesignDay,12/21,12/21,SummerDesignDay,1,N/A,N/A,N/A,N/A,N/A,N/A,Clark and Allen
Environment:Daylight Saving,No,SizingPeriod:DesignDay
Environment,KODIAK FEBRUARY .4% CONDNS DB=>MCWB HVAC Sizing Pass 1,SizingPeriod:DesignDay,02/21,02/21,SummerDesignDay,1,N/A,N/A,N/A,N/A,N/A,N/A,Clark and Allen
Environment:Daylight Saving,No,SizingPeriod:DesignDay
Environment,KODIAK FEBRUARY .4% CONDNS WB=>MCDB HVAC Sizing Pass 1,SizingPeriod:DesignDay,02/21,02/21,SummerDesignDay,1,N/A,N/A,N/A,N/A,N/A,N/A,Clark and Allen
Environment:Daylight Saving,No,SizingPeriod:DesignDay
Environment,KODIAK JANUARY .4% CONDNS DB=>MCWB HVAC Sizing Pass 1,SizingPeriod:DesignDay,01/21,01/21,SummerDesignDay,1,N/A,N/A,N/A,N/A,N/A,N/A,Clark and Allen
Environment:Daylight Saving,No,SizingPeriod:DesignDay
Environment,KODIAK JANUARY .4% CONDNS WB=>MCDB HVAC Sizing Pass 1,SizingPeriod:DesignDay,01/21,01/21,SummerDesignDay,1,N/A,N/A,N/A,N/A,N/A,N/A,Clark and Allen
Environment:Daylight Saving,No,SizingPeriod:DesignDay
Environment,KODIAK JULY .4% CONDNS DB=>MCWB HVAC Sizing Pass 1,SizingPeriod:DesignDay,07/21,07/21,SummerDesignDay,1,N/A,N/A,N/A,N/A,N/A,N/A,Clark and Allen
Environment:Daylight Saving,No,SizingPeriod:DesignDay
Environment,KODIAK JULY .4% CONDNS WB=>MCDB HVAC Sizing Pass 1,SizingPeriod:DesignDay,07/21,07/21,SummerDesignDay,1,N/A,N/A,N/A,N/A,N/A,N/A,Clark and Allen
Environment:Daylight Saving,No,SizingPeriod:DesignDay
Environment,KODIAK JUNE .4% CONDNS DB=>MCWB HVAC Sizing Pass 1,SizingPeriod:DesignDay,06/21,06/21,SummerDesignDay,1,N/A,N/A,N/A,N/A,N/A,N/A,Clark and Allen
Environment:Daylight Saving,No,SizingPeriod:DesignDay
Environment,KODIAK JUNE .4% CONDNS WB=>MCDB HVAC Sizing Pass 1,SizingPeriod:DesignDay,06/21,06/21,SummerDesignDay,1,N/A,N/A,N/A,N/A,N/A,N/A,Clark and Allen
Environment:Daylight Saving,No,SizingPeriod:DesignDay
Environment,KODIAK MARCH .4% CONDNS DB=>MCWB HVAC Sizing Pass 1,SizingPeriod:DesignDay,03/21,03/21,SummerDesignDay,1,N/A,N/A,N/A,N/A,N/A,N/A,Clark and Allen
Environment:Daylight Saving,No,SizingPeriod:DesignDay
Environment,KODIAK MARCH .4% CONDNS WB=>MCDB HVAC Sizing Pass 1,SizingPeriod:DesignDay,03/21,03/21,SummerDesignDay,1,N/A,N/A,N/A,N/A,N/A,N/A,Clark and Allen
Environment:Daylight Saving,No,SizingPeriod:DesignDay
Environment,KODIAK MAY .4% CONDNS DB=>MCWB HVAC Sizing Pass 1,SizingPeriod:DesignDay,05/21,05/21,SummerDesignDay,1,N/A,N/A,N/A,N/A,N/A,N/A,Clark and Allen
Environment:Daylight Saving,No,SizingPeriod:DesignDay
Environment,KODIAK MAY .4% CONDNS WB=>MCDB HVAC Sizing Pass 1,SizingPeriod:DesignDay,05/21,05/21,SummerDesignDay,1,N/A,N/A,N/A,N/A,N/A,N/A,Clark and Allen
Environment:Daylight Saving,No,SizingPeriod:DesignDay
Environment,KODIAK NOVEMBER .4% CONDNS DB=>MCWB HVAC Sizing Pass 1,SizingPeriod:DesignDay,11/21,11/21,SummerDesignDay,1,N/A,N/A,N/A,N/A,N/A,N/A,Clark and Allen
Environment:Daylight Saving,No,SizingPeriod:DesignDay
Environment,KODIAK NOVEMBER .4% CONDNS WB=>MCDB HVAC Sizing Pass 1,SizingPeriod:DesignDay,11/21,11/21,SummerDesignDay,1,N/A,N/A,N/A,N/A,N/A,N/A,Clark and Allen
Environment:Daylight Saving,No,SizingPeriod:DesignDay
Environment,KODIAK OCTOBER .4% CONDNS DB=>MCWB HVAC Sizing Pass 1,SizingPeriod:DesignDay,10/21,10/21,SummerDesignDay,1,N/A,N/A,N/A,N/A,N/A,N/A,Clark and Allen
Environment:Daylight Saving,No,SizingPeriod:DesignDay
Environment,KODIAK OCTOBER .4% CONDNS WB=>MCDB HVAC Sizing Pass 1,SizingPeriod:DesignDay,10/21,10/21,SummerDesignDay,1,N/A,N/A,N/A,N/A,N/A,N/A,Clark and Allen
Environment:Daylight Saving,No,SizingPeriod:DesignDay
Environment,KODIAK SEPTEMBER .4% CONDNS DB=>MCWB HVAC Sizing Pass 1,SizingPeriod:DesignDay,09/21,09/21,SummerDesignDay,1,N/A,N/A,N/A,N/A,N/A,N/A,Clark and Allen
Environment:Daylight Saving,No,SizingPeriod:DesignDay
Environment,KODIAK SEPTEMBER .4% CONDNS WB=>MCDB HVAC Sizing Pass 1,SizingPeriod:DesignDay,09/21,09/21,SummerDesignDay,1,N/A,N/A,N/A,N/A,N/A,N/A,Clark and Allen
Environment:Daylight Saving,No,SizingPeriod:DesignDay
! <Program Control Information:Threads/Parallel Sims>, Threading Supported,Maximum Number of Threads, Env Set Threads (OMP_NUM_THREADS), EP Env Set Threads (EP_OMP_NUM_THREADS), IDF Set Threads, Number of Threads Used (Interior Radiant Exchange), Number Nominal Surfaces, Number Parallel Sims
Program Control:Threads/Parallel Sims, No,1, N/A, N/A, N/A, N/A, N/A, N/A
End of Data
