Program Version,EnergyPlus, Version 22.2.0-aa78da9668, YMD=2023.06.21 17:25,
   ** Warning ** Timestep: Requested number (1) is less than the suggested minimum of 4.
   **   ~~~   ** Please see entry for Timestep in Input/Output Reference for discussion of considerations.
   ************* Beginning Zone Sizing Calculations
   ** Warning ** ProcessScheduleInput: Schedule:Constant="TEMPORARY PIPE INDOOR AMBIENT TEMP 67.3F", Blank Schedule Type Limits Name input -- will not be validated.
   ** Warning ** ProcessScheduleInput: Schedule:Constant="ALWAYS ON CONTINUOUS", Blank Schedule Type Limits Name input -- will not be validated.
   ** Warning ** CheckUsedConstructions: There are 11 nominally unused constructions in input.
   **   ~~~   ** For explicit details on each unused construction, use Output:Diagnostics,DisplayExtraWarnings;
   ** Severe  ** WaterHeater:Mixed = 40GAL ELECTRICITY WATER HEATER - 40KBTU/HR 1.0 THERM EFF 1.0 THERM EFF:  Ambient Temperature Zone not found = 
   ************* Beginning System Sizing Calculations
   ** Warning ** GetDXCoils: Coil:Cooling:DX:SingleSpeed="ZONE OFFICE WHOLEBUILDING - SM OFFICE 2 A  - STORY GROUND PSZ-AC 1SPD DX AC CLG COIL 22KBTU/HR 9.7SEER", invalid
   **   ~~~   ** ...Part Load Fraction Correlation Curve Name = COILCLGDXEIRRATIO_FQFRAC has out of range value.
   **   ~~~   ** ...Curve maximum must be <= 1.0, curve max at PLR = 0.99 is 1.018
   **   ~~~   ** ...Setting curve maximum to 1.0 and simulation continues.
   ** Warning ** AirLoopHVAC:UnitarySystem = ZONE OFFICE WHOLEBUILDING - SM OFFICE 2 A  - STORY GROUND PSZ-AC UNITARY AC
   **   ~~~   ** Method used to determine the cooling supply air flow rate is not specified when cooling coil is present.
   ** Warning ** AirLoopHVAC:UnitarySystem = ZONE OFFICE WHOLEBUILDING - SM OFFICE 2 A  - STORY GROUND PSZ-AC UNITARY AC
   **   ~~~   ** Method used to determine the heating supply air flow rate is not specified when heating coil is present.
   ** Warning ** AirLoopHVAC:UnitarySystem = ZONE OFFICE WHOLEBUILDING - SM OFFICE 2 A END_A - STORY GROUND PSZ-AC UNITARY AC
   **   ~~~   ** Method used to determine the cooling supply air flow rate is not specified when cooling coil is present.
   ** Warning ** AirLoopHVAC:UnitarySystem = ZONE OFFICE WHOLEBUILDING - SM OFFICE 2 A END_A - STORY GROUND PSZ-AC UNITARY AC
   **   ~~~   ** Method used to determine the heating supply air flow rate is not specified when heating coil is present.
   ** Warning ** AirLoopHVAC:UnitarySystem = ZONE OFFICE WHOLEBUILDING - SM OFFICE 2 A END_B - STORY GROUND PSZ-AC UNITARY AC
   **   ~~~   ** Method used to determine the cooling supply air flow rate is not specified when cooling coil is present.
   ** Warning ** AirLoopHVAC:UnitarySystem = ZONE OFFICE WHOLEBUILDING - SM OFFICE 2 A END_B - STORY GROUND PSZ-AC UNITARY AC
   **   ~~~   ** Method used to determine the heating supply air flow rate is not specified when heating coil is present.
   ** Warning ** AirLoopHVAC:UnitarySystem = ZONE OFFICE WHOLEBUILDING - SM OFFICE 2 B  - STORY GROUND PSZ-AC UNITARY AC
   **   ~~~   ** Method used to determine the cooling supply air flow rate is not specified when cooling coil is present.
   ** Warning ** AirLoopHVAC:UnitarySystem = ZONE OFFICE WHOLEBUILDING - SM OFFICE 2 B  - STORY GROUND PSZ-AC UNITARY AC
   **   ~~~   ** Method used to determine the heating supply air flow rate is not specified when heating coil is present.
   ** Warning ** AirLoopHVAC:UnitarySystem = ZONE OFFICE WHOLEBUILDING - SM OFFICE 2 B END_A - STORY GROUND PSZ-AC UNITARY AC
   **   ~~~   ** Method used to determine the cooling supply air flow rate is not specified when cooling coil is present.
   ** Warning ** AirLoopHVAC:UnitarySystem = ZONE OFFICE WHOLEBUILDING - SM OFFICE 2 B END_A - STORY GROUND PSZ-AC UNITARY AC
   **   ~~~   ** Method used to determine the heating supply air flow rate is not specified when heating coil is present.
   ** Warning ** AirLoopHVAC:UnitarySystem = ZONE OFFICE WHOLEBUILDING - SM OFFICE 2 B END_B - STORY GROUND PSZ-AC UNITARY AC
   **   ~~~   ** Method used to determine the cooling supply air flow rate is not specified when cooling coil is present.
   ** Warning ** AirLoopHVAC:UnitarySystem = ZONE OFFICE WHOLEBUILDING - SM OFFICE 2 B END_B - STORY GROUND PSZ-AC UNITARY AC
   **   ~~~   ** Method used to determine the heating supply air flow rate is not specified when heating coil is present.
   ** Warning ** AirLoopHVAC:UnitarySystem = ZONE OFFICE WHOLEBUILDING - SM OFFICE 2 C  - STORY GROUND PSZ-AC UNITARY AC
   **   ~~~   ** Method used to determine the cooling supply air flow rate is not specified when cooling coil is present.
   ** Warning ** AirLoopHVAC:UnitarySystem = ZONE OFFICE WHOLEBUILDING - SM OFFICE 2 C  - STORY GROUND PSZ-AC UNITARY AC
   **   ~~~   ** Method used to determine the heating supply air flow rate is not specified when heating coil is present.
   ** Warning ** AirLoopHVAC:UnitarySystem = ZONE OFFICE WHOLEBUILDING - SM OFFICE 2 C END_A - STORY GROUND PSZ-AC UNITARY AC
   **   ~~~   ** Method used to determine the cooling supply air flow rate is not specified when cooling coil is present.
   ** Warning ** AirLoopHVAC:UnitarySystem = ZONE OFFICE WHOLEBUILDING - SM OFFICE 2 C END_A - STORY GROUND PSZ-AC UNITARY AC
   **   ~~~   ** Method used to determine the heating supply air flow rate is not specified when heating coil is present.
   ** Warning ** AirLoopHVAC:UnitarySystem = ZONE OFFICE WHOLEBUILDING - SM OFFICE 2 C END_B - STORY GROUND PSZ-AC UNITARY AC
   **   ~~~   ** Method used to determine the cooling supply air flow rate is not specified when cooling coil is present.
   ** Warning ** AirLoopHVAC:UnitarySystem = ZONE OFFICE WHOLEBUILDING - SM OFFICE 2 C END_B - STORY GROUND PSZ-AC UNITARY AC
   **   ~~~   ** Method used to determine the heating supply air flow rate is not specified when heating coil is present.
   ************* Beginning Plant Sizing Calculations
   ** Warning ** GetOAControllerInputs: Controller:MechanicalVentilation="CONTROLLER MECHANICAL VENTILATION 1
   **   ~~~   ** Cannot locate a matching DesignSpecification:ZoneAirDistribution object for Zone="ZONE OFFICE WHOLEBUILDING - SM OFFICE 2 A  - STORY GROUND".
   **   ~~~   ** Using default zone air distribution effectiveness of 1.0 for heating and cooling.
   ** Warning ** GetOAControllerInputs: Controller:MechanicalVentilation="CONTROLLER MECHANICAL VENTILATION 2
   **   ~~~   ** Cannot locate a matching DesignSpecification:ZoneAirDistribution object for Zone="ZONE OFFICE WHOLEBUILDING - SM OFFICE 2 A END_A - STORY GROUND".
   **   ~~~   ** Using default zone air distribution effectiveness of 1.0 for heating and cooling.
   ** Warning ** GetOAControllerInputs: Controller:MechanicalVentilation="CONTROLLER MECHANICAL VENTILATION 3
   **   ~~~   ** Cannot locate a matching DesignSpecification:ZoneAirDistribution object for Zone="ZONE OFFICE WHOLEBUILDING - SM OFFICE 2 A END_B - STORY GROUND".
   **   ~~~   ** Using default zone air distribution effectiveness of 1.0 for heating and cooling.
   ** Warning ** GetOAControllerInputs: Controller:MechanicalVentilation="CONTROLLER MECHANICAL VENTILATION 4
   **   ~~~   ** Cannot locate a matching DesignSpecification:ZoneAirDistribution object for Zone="ZONE OFFICE WHOLEBUILDING - SM OFFICE 2 B  - STORY GROUND".
   **   ~~~   ** Using default zone air distribution effectiveness of 1.0 for heating and cooling.
   ** Warning ** GetOAControllerInputs: Controller:MechanicalVentilation="CONTROLLER MECHANICAL VENTILATION 5
   **   ~~~   ** Cannot locate a matching DesignSpecification:ZoneAirDistribution object for Zone="ZONE OFFICE WHOLEBUILDING - SM OFFICE 2 B END_A - STORY GROUND".
   **   ~~~   ** Using default zone air distribution effectiveness of 1.0 for heating and cooling.
   ** Warning ** GetOAControllerInputs: Controller:MechanicalVentilation="CONTROLLER MECHANICAL VENTILATION 6
   **   ~~~   ** Cannot locate a matching DesignSpecification:ZoneAirDistribution object for Zone="ZONE OFFICE WHOLEBUILDING - SM OFFICE 2 B END_B - STORY GROUND".
   **   ~~~   ** Using default zone air distribution effectiveness of 1.0 for heating and cooling.
   ** Warning ** GetOAControllerInputs: Controller:MechanicalVentilation="CONTROLLER MECHANICAL VENTILATION 7
   **   ~~~   ** Cannot locate a matching DesignSpecification:ZoneAirDistribution object for Zone="ZONE OFFICE WHOLEBUILDING - SM OFFICE 2 C  - STORY GROUND".
   **   ~~~   ** Using default zone air distribution effectiveness of 1.0 for heating and cooling.
   ** Warning ** GetOAControllerInputs: Controller:MechanicalVentilation="CONTROLLER MECHANICAL VENTILATION 8
   **   ~~~   ** Cannot locate a matching DesignSpecification:ZoneAirDistribution object for Zone="ZONE OFFICE WHOLEBUILDING - SM OFFICE 2 C END_A - STORY GROUND".
   **   ~~~   ** Using default zone air distribution effectiveness of 1.0 for heating and cooling.
   ** Warning ** GetOAControllerInputs: Controller:MechanicalVentilation="CONTROLLER MECHANICAL VENTILATION 9
   **   ~~~   ** Cannot locate a matching DesignSpecification:ZoneAirDistribution object for Zone="ZONE OFFICE WHOLEBUILDING - SM OFFICE 2 C END_B - STORY GROUND".
   **   ~~~   ** Using default zone air distribution effectiveness of 1.0 for heating and cooling.
   ** Warning ** The Standard Ratings is calculated for Coil:Cooling:DX:SingleSpeed = ZONE OFFICE WHOLEBUILDING - SM OFFICE 2 A  - STORY GROUND PSZ-AC 1SPD DX AC CLG COIL 22KBTU/HR 9.7SEER but not at the AHRI test condition due to curve out of bound.
   **   ~~~   **  Review the Standard Ratings calculations in the Engineering Reference for this coil type. Also, use Output:Diagnostics, DisplayExtraWarnings for further guidance.
   ** Warning ** The Standard Ratings is calculated for Coil:Cooling:DX:SingleSpeed = ZONE OFFICE WHOLEBUILDING - SM OFFICE 2 A END_A - STORY GROUND PSZ-AC 1SPD DX AC CLG COIL 9KBTU/HR 9.7SEER but not at the AHRI test condition due to curve out of bound.
   **   ~~~   **  Review the Standard Ratings calculations in the Engineering Reference for this coil type. Also, use Output:Diagnostics, DisplayExtraWarnings for further guidance.
   ** Warning ** The Standard Ratings is calculated for Coil:Cooling:DX:SingleSpeed = ZONE OFFICE WHOLEBUILDING - SM OFFICE 2 A END_B - STORY GROUND PSZ-AC 1SPD DX AC CLG COIL 8KBTU/HR 9.7SEER but not at the AHRI test condition due to curve out of bound.
   **   ~~~   **  Review the Standard Ratings calculations in the Engineering Reference for this coil type. Also, use Output:Diagnostics, DisplayExtraWarnings for further guidance.
   ** Warning ** The Standard Ratings is calculated for Coil:Cooling:DX:SingleSpeed = ZONE OFFICE WHOLEBUILDING - SM OFFICE 2 B  - STORY GROUND PSZ-AC 1SPD DX AC CLG COIL 16KBTU/HR 9.7SEER but not at the AHRI test condition due to curve out of bound.
   **   ~~~   **  Review the Standard Ratings calculations in the Engineering Reference for this coil type. Also, use Output:Diagnostics, DisplayExtraWarnings for further guidance.
   ** Warning ** The Standard Ratings is calculated for Coil:Cooling:DX:SingleSpeed = ZONE OFFICE WHOLEBUILDING - SM OFFICE 2 B END_A - STORY GROUND PSZ-AC 1SPD DX AC CLG COIL 10KBTU/HR 9.7SEER but not at the AHRI test condition due to curve out of bound.
   **   ~~~   **  Review the Standard Ratings calculations in the Engineering Reference for this coil type. Also, use Output:Diagnostics, DisplayExtraWarnings for further guidance.
   ** Warning ** The Standard Ratings is calculated for Coil:Cooling:DX:SingleSpeed = ZONE OFFICE WHOLEBUILDING - SM OFFICE 2 B END_B - STORY GROUND PSZ-AC 1SPD DX AC CLG COIL 10KBTU/HR 9.7SEER but not at the AHRI test condition due to curve out of bound.
   **   ~~~   **  Review the Standard Ratings calculations in the Engineering Reference for this coil type. Also, use Output:Diagnostics, DisplayExtraWarnings for further guidance.
   ** Warning ** The Standard Ratings is calculated for Coil:Cooling:DX:SingleSpeed = ZONE OFFICE WHOLEBUILDING - SM OFFICE 2 C  - STORY GROUND PSZ-AC 1SPD DX AC CLG COIL 10KBTU/HR 9.7SEER but not at the AHRI test condition due to curve out of bound.
   **   ~~~   **  Review the Standard Ratings calculations in the Engineering Reference for this coil type. Also, use Output:Diagnostics, DisplayExtraWarnings for further guidance.
   ** Warning ** The Standard Ratings is calculated for Coil:Cooling:DX:SingleSpeed = ZONE OFFICE WHOLEBUILDING - SM OFFICE 2 C END_A - STORY GROUND PSZ-AC 1SPD DX AC CLG COIL 7KBTU/HR 9.7SEER but not at the AHRI test condition due to curve out of bound.
   **   ~~~   **  Review the Standard Ratings calculations in the Engineering Reference for this coil type. Also, use Output:Diagnostics, DisplayExtraWarnings for further guidance.
   ** Warning ** The Standard Ratings is calculated for Coil:Cooling:DX:SingleSpeed = ZONE OFFICE WHOLEBUILDING - SM OFFICE 2 C END_B - STORY GROUND PSZ-AC 1SPD DX AC CLG COIL 6KBTU/HR 9.7SEER but not at the AHRI test condition due to curve out of bound.
   **   ~~~   **  Review the Standard Ratings calculations in the Engineering Reference for this coil type. Also, use Output:Diagnostics, DisplayExtraWarnings for further guidance.
   ** Warning ** SizePlantLoop: Calculated Plant Sizing Design Volume Flow Rate=[0.00] is too small. Set to 0.0
   **   ~~~   ** ..occurs for PlantLoop=MAIN SERVICE WATER LOOP
   ** Warning ** SizePump: Calculated Pump Nominal Volume Flow Rate=[0.00] is too small. Set to 0.0
   **   ~~~   ** ..occurs for Pump=MAIN SERVICE WATER LOOP WATER MAINS PRESSURE DRIVEN
   ** Warning ** Check input. Pump nominal power or motor efficiency is set to 0, for pump=MAIN SERVICE WATER LOOP WATER MAINS PRESSURE DRIVEN
   ** Warning ** Check input. Pump nominal flow rate is set or calculated = 0, for pump=MAIN SERVICE WATER LOOP WATER MAINS PRESSURE DRIVEN
   ** Warning ** Output:Meter: invalid Key Name="DISTRICTCOOLING:FACILITY" - not found.
   ** Warning ** Output:Meter: invalid Key Name="DISTRICTHEATING:FACILITY" - not found.
   ** Warning ** Output:Meter:MeterFileOnly requested for "Electricity:Facility" (TimeStep), already on "Output:Meter". Will report to both eplusout.eso and eplusout.mtr
   ************* Testing Individual Branch Integrity
   ************* All Branches passed integrity testing
   ************* Testing Individual Supply Air Path Integrity
   ************* All Supply Air Paths passed integrity testing
   ************* Testing Individual Return Air Path Integrity
   ************* All Return Air Paths passed integrity testing
   ************* No node connection errors were found.
   ************* Beginning Simulation
   ** Warning ** In Output:Table:Monthly 'BUILDING ENERGY PERFORMANCE - ELECTRICITY' invalid Variable or Meter Name 'EXTERIOREQUIPMENT:ELECTRICITY'
   ** Warning ** In Output:Table:Monthly 'BUILDING ENERGY PERFORMANCE - ELECTRICITY' invalid Variable or Meter Name 'HEATREJECTION:ELECTRICITY'
   ** Warning ** In Output:Table:Monthly 'BUILDING ENERGY PERFORMANCE - ELECTRICITY' invalid Variable or Meter Name 'HUMIDIFIER:ELECTRICITY'
   ** Warning ** In Output:Table:Monthly 'BUILDING ENERGY PERFORMANCE - ELECTRICITY' invalid Variable or Meter Name 'HEATRECOVERY:ELECTRICITY'
   ** Warning ** In Output:Table:Monthly 'BUILDING ENERGY PERFORMANCE - ELECTRICITY' invalid Variable or Meter Name 'COGENERATION:ELECTRICITY'
   ** Warning ** In Output:Table:Monthly 'BUILDING ENERGY PERFORMANCE - ELECTRICITY' invalid Variable or Meter Name 'REFRIGERATION:ELECTRICITY'
   ** Warning ** In Output:Table:Monthly 'BUILDING ENERGY PERFORMANCE - NATURAL GAS' invalid Variable or Meter Name 'INTERIOREQUIPMENT:NATURALGAS'
   ** Warning ** In Output:Table:Monthly 'BUILDING ENERGY PERFORMANCE - NATURAL GAS' invalid Variable or Meter Name 'EXTERIOREQUIPMENT:NATURALGAS'
   ** Warning ** In Output:Table:Monthly 'BUILDING ENERGY PERFORMANCE - NATURAL GAS' invalid Variable or Meter Name 'COOLING:NATURALGAS'
   ** Warning ** In Output:Table:Monthly 'BUILDING ENERGY PERFORMANCE - NATURAL GAS' invalid Variable or Meter Name 'COGENERATION:NATURALGAS'
   ** Warning ** In Output:Table:Monthly 'BUILDING ENERGY PERFORMANCE - DISTRICT HEATING' invalid Variable or Meter Name 'INTERIORLIGHTS:DISTRICTHEATING'
   ** Warning ** In Output:Table:Monthly 'BUILDING ENERGY PERFORMANCE - DISTRICT HEATING' invalid Variable or Meter Name 'EXTERIORLIGHTS:DISTRICTHEATING'
   ** Warning ** In Output:Table:Monthly 'BUILDING ENERGY PERFORMANCE - DISTRICT HEATING' invalid Variable or Meter Name 'INTERIOREQUIPMENT:DISTRICTHEATING'
   ** Warning ** In Output:Table:Monthly 'BUILDING ENERGY PERFORMANCE - DISTRICT HEATING' invalid Variable or Meter Name 'EXTERIOREQUIPMENT:DISTRICTHEATING'
   ** Warning ** In Output:Table:Monthly 'BUILDING ENERGY PERFORMANCE - DISTRICT HEATING' invalid Variable or Meter Name 'FANS:DISTRICTHEATING'
   ** Warning ** In Output:Table:Monthly 'BUILDING ENERGY PERFORMANCE - DISTRICT HEATING' invalid Variable or Meter Name 'PUMPS:DISTRICTHEATING'
   ** Warning ** In Output:Table:Monthly 'BUILDING ENERGY PERFORMANCE - DISTRICT HEATING' invalid Variable or Meter Name 'HEATING:DISTRICTHEATING'
   ** Warning ** In Output:Table:Monthly 'BUILDING ENERGY PERFORMANCE - DISTRICT HEATING' invalid Variable or Meter Name 'COOLING:DISTRICTHEATING'
   ** Warning ** In Output:Table:Monthly 'BUILDING ENERGY PERFORMANCE - DISTRICT HEATING' invalid Variable or Meter Name 'HEATREJECTION:DISTRICTHEATING'
   ** Warning ** In Output:Table:Monthly 'BUILDING ENERGY PERFORMANCE - DISTRICT HEATING' invalid Variable or Meter Name 'HUMIDIFIER:DISTRICTHEATING'
   ** Warning ** In Output:Table:Monthly 'BUILDING ENERGY PERFORMANCE - DISTRICT HEATING' invalid Variable or Meter Name 'HEATRECOVERY:DISTRICTHEATING'
   ** Warning ** In Output:Table:Monthly 'BUILDING ENERGY PERFORMANCE - DISTRICT HEATING' invalid Variable or Meter Name 'WATERSYSTEMS:DISTRICTHEATING'
   ** Warning ** In Output:Table:Monthly 'BUILDING ENERGY PERFORMANCE - DISTRICT HEATING' invalid Variable or Meter Name 'COGENERATION:DISTRICTHEATING'
   ** Warning ** In Output:Table:Monthly 'BUILDING ENERGY PERFORMANCE - DISTRICT COOLING' invalid Variable or Meter Name 'INTERIORLIGHTS:DISTRICTCOOLING'
   ** Warning ** In Output:Table:Monthly 'BUILDING ENERGY PERFORMANCE - DISTRICT COOLING' invalid Variable or Meter Name 'EXTERIORLIGHTS:DISTRICTCOOLING'
   ** Warning ** In Output:Table:Monthly 'BUILDING ENERGY PERFORMANCE - DISTRICT COOLING' invalid Variable or Meter Name 'INTERIOREQUIPMENT:DISTRICTCOOLING'
   ** Warning ** In Output:Table:Monthly 'BUILDING ENERGY PERFORMANCE - DISTRICT COOLING' invalid Variable or Meter Name 'EXTERIOREQUIPMENT:DISTRICTCOOLING'
   ** Warning ** In Output:Table:Monthly 'BUILDING ENERGY PERFORMANCE - DISTRICT COOLING' invalid Variable or Meter Name 'FANS:DISTRICTCOOLING'
   ** Warning ** In Output:Table:Monthly 'BUILDING ENERGY PERFORMANCE - DISTRICT COOLING' invalid Variable or Meter Name 'PUMPS:DISTRICTCOOLING'
   ** Warning ** In Output:Table:Monthly 'BUILDING ENERGY PERFORMANCE - DISTRICT COOLING' invalid Variable or Meter Name 'HEATING:DISTRICTCOOLING'
   ** Warning ** In Output:Table:Monthly 'BUILDING ENERGY PERFORMANCE - DISTRICT COOLING' invalid Variable or Meter Name 'COOLING:DISTRICTCOOLING'
   ** Warning ** In Output:Table:Monthly 'BUILDING ENERGY PERFORMANCE - DISTRICT COOLING' invalid Variable or Meter Name 'HEATREJECTION:DISTRICTCOOLING'
   ** Warning ** In Output:Table:Monthly 'BUILDING ENERGY PERFORMANCE - DISTRICT COOLING' invalid Variable or Meter Name 'HUMIDIFIER:DISTRICTCOOLING'
   ** Warning ** In Output:Table:Monthly 'BUILDING ENERGY PERFORMANCE - DISTRICT COOLING' invalid Variable or Meter Name 'HEATRECOVERY:DISTRICTCOOLING'
   ** Warning ** In Output:Table:Monthly 'BUILDING ENERGY PERFORMANCE - DISTRICT COOLING' invalid Variable or Meter Name 'WATERSYSTEMS:DISTRICTCOOLING'
   ** Warning ** In Output:Table:Monthly 'BUILDING ENERGY PERFORMANCE - DISTRICT COOLING' invalid Variable or Meter Name 'COGENERATION:DISTRICTCOOLING'
   ** Warning ** In Output:Table:Monthly 'BUILDING ENERGY PERFORMANCE - ELECTRICITY PEAK DEMAND' invalid Variable or Meter Name 'EXTERIOREQUIPMENT:ELECTRICITY'
   ** Warning ** In Output:Table:Monthly 'BUILDING ENERGY PERFORMANCE - ELECTRICITY PEAK DEMAND' invalid Variable or Meter Name 'HEATREJECTION:ELECTRICITY'
   ** Warning ** In Output:Table:Monthly 'BUILDING ENERGY PERFORMANCE - ELECTRICITY PEAK DEMAND' invalid Variable or Meter Name 'HUMIDIFIER:ELECTRICITY'
   ** Warning ** In Output:Table:Monthly 'BUILDING ENERGY PERFORMANCE - ELECTRICITY PEAK DEMAND' invalid Variable or Meter Name 'HEATRECOVERY:ELECTRICITY'
   ** Warning ** In Output:Table:Monthly 'BUILDING ENERGY PERFORMANCE - ELECTRICITY PEAK DEMAND' invalid Variable or Meter Name 'COGENERATION:ELECTRICITY'
   ** Warning ** In Output:Table:Monthly 'BUILDING ENERGY PERFORMANCE - NATURAL GAS PEAK DEMAND' invalid Variable or Meter Name 'INTERIOREQUIPMENT:NATURALGAS'
   ** Warning ** In Output:Table:Monthly 'BUILDING ENERGY PERFORMANCE - NATURAL GAS PEAK DEMAND' invalid Variable or Meter Name 'EXTERIOREQUIPMENT:NATURALGAS'
   ** Warning ** In Output:Table:Monthly 'BUILDING ENERGY PERFORMANCE - NATURAL GAS PEAK DEMAND' invalid Variable or Meter Name 'COOLING:NATURALGAS'
   ** Warning ** In Output:Table:Monthly 'BUILDING ENERGY PERFORMANCE - NATURAL GAS PEAK DEMAND' invalid Variable or Meter Name 'COGENERATION:NATURALGAS'
   ** Warning ** In Output:Table:Monthly 'BUILDING ENERGY PERFORMANCE - DISTRICT HEATING PEAK DEMAND' invalid Variable or Meter Name 'DISTRICTHEATING:FACILITY'
   ** Warning ** In Output:Table:Monthly 'BUILDING ENERGY PERFORMANCE - DISTRICT HEATING PEAK DEMAND' invalid Variable or Meter Name 'INTERIORLIGHTS:DISTRICTHEATING'
   ** Warning ** In Output:Table:Monthly 'BUILDING ENERGY PERFORMANCE - DISTRICT HEATING PEAK DEMAND' invalid Variable or Meter Name 'EXTERIORLIGHTS:DISTRICTHEATING'
   ** Warning ** In Output:Table:Monthly 'BUILDING ENERGY PERFORMANCE - DISTRICT HEATING PEAK DEMAND' invalid Variable or Meter Name 'INTERIOREQUIPMENT:DISTRICTHEATING'
   ** Warning ** In Output:Table:Monthly 'BUILDING ENERGY PERFORMANCE - DISTRICT HEATING PEAK DEMAND' invalid Variable or Meter Name 'EXTERIOREQUIPMENT:DISTRICTHEATING'
   ** Warning ** In Output:Table:Monthly 'BUILDING ENERGY PERFORMANCE - DISTRICT HEATING PEAK DEMAND' invalid Variable or Meter Name 'FANS:DISTRICTHEATING'
   ** Warning ** In Output:Table:Monthly 'BUILDING ENERGY PERFORMANCE - DISTRICT HEATING PEAK DEMAND' invalid Variable or Meter Name 'PUMPS:DISTRICTHEATING'
   ** Warning ** In Output:Table:Monthly 'BUILDING ENERGY PERFORMANCE - DISTRICT HEATING PEAK DEMAND' invalid Variable or Meter Name 'HEATING:DISTRICTHEATING'
   ** Warning ** In Output:Table:Monthly 'BUILDING ENERGY PERFORMANCE - DISTRICT HEATING PEAK DEMAND' invalid Variable or Meter Name 'COOLING:DISTRICTHEATING'
   ** Warning ** In Output:Table:Monthly 'BUILDING ENERGY PERFORMANCE - DISTRICT HEATING PEAK DEMAND' invalid Variable or Meter Name 'HEATREJECTION:DISTRICTHEATING'
   ** Warning ** In Output:Table:Monthly 'BUILDING ENERGY PERFORMANCE - DISTRICT HEATING PEAK DEMAND' invalid Variable or Meter Name 'HUMIDIFIER:DISTRICTHEATING'
   ** Warning ** In Output:Table:Monthly 'BUILDING ENERGY PERFORMANCE - DISTRICT HEATING PEAK DEMAND' invalid Variable or Meter Name 'HEATRECOVERY:DISTRICTHEATING'
   ** Warning ** In Output:Table:Monthly 'BUILDING ENERGY PERFORMANCE - DISTRICT HEATING PEAK DEMAND' invalid Variable or Meter Name 'WATERSYSTEMS:DISTRICTHEATING'
   ** Warning ** In Output:Table:Monthly 'BUILDING ENERGY PERFORMANCE - DISTRICT HEATING PEAK DEMAND' invalid Variable or Meter Name 'COGENERATION:DISTRICTHEATING'
   ** Warning ** In Output:Table:Monthly 'BUILDING ENERGY PERFORMANCE - DISTRICT COOLING PEAK DEMAND' invalid Variable or Meter Name 'DISTRICTCOOLING:FACILITY'
   ** Warning ** In Output:Table:Monthly 'BUILDING ENERGY PERFORMANCE - DISTRICT COOLING PEAK DEMAND' invalid Variable or Meter Name 'INTERIORLIGHTS:DISTRICTCOOLING'
   ** Warning ** In Output:Table:Monthly 'BUILDING ENERGY PERFORMANCE - DISTRICT COOLING PEAK DEMAND' invalid Variable or Meter Name 'EXTERIORLIGHTS:DISTRICTCOOLING'
   ** Warning ** In Output:Table:Monthly 'BUILDING ENERGY PERFORMANCE - DISTRICT COOLING PEAK DEMAND' invalid Variable or Meter Name 'INTERIOREQUIPMENT:DISTRICTCOOLING'
   ** Warning ** In Output:Table:Monthly 'BUILDING ENERGY PERFORMANCE - DISTRICT COOLING PEAK DEMAND' invalid Variable or Meter Name 'EXTERIOREQUIPMENT:DISTRICTCOOLING'
   ** Warning ** In Output:Table:Monthly 'BUILDING ENERGY PERFORMANCE - DISTRICT COOLING PEAK DEMAND' invalid Variable or Meter Name 'FANS:DISTRICTCOOLING'
   ** Warning ** In Output:Table:Monthly 'BUILDING ENERGY PERFORMANCE - DISTRICT COOLING PEAK DEMAND' invalid Variable or Meter Name 'PUMPS:DISTRICTCOOLING'
   ** Warning ** In Output:Table:Monthly 'BUILDING ENERGY PERFORMANCE - DISTRICT COOLING PEAK DEMAND' invalid Variable or Meter Name 'HEATING:DISTRICTCOOLING'
   ** Warning ** In Output:Table:Monthly 'BUILDING ENERGY PERFORMANCE - DISTRICT COOLING PEAK DEMAND' invalid Variable or Meter Name 'COOLING:DISTRICTCOOLING'
   ** Warning ** In Output:Table:Monthly 'BUILDING ENERGY PERFORMANCE - DISTRICT COOLING PEAK DEMAND' invalid Variable or Meter Name 'HEATREJECTION:DISTRICTCOOLING'
   ** Warning ** In Output:Table:Monthly 'BUILDING ENERGY PERFORMANCE - DISTRICT COOLING PEAK DEMAND' invalid Variable or Meter Name 'HUMIDIFIER:DISTRICTCOOLING'
   ** Warning ** In Output:Table:Monthly 'BUILDING ENERGY PERFORMANCE - DISTRICT COOLING PEAK DEMAND' invalid Variable or Meter Name 'HEATRECOVERY:DISTRICTCOOLING'
   ** Warning ** In Output:Table:Monthly 'BUILDING ENERGY PERFORMANCE - DISTRICT COOLING PEAK DEMAND' invalid Variable or Meter Name 'WATERSYSTEMS:DISTRICTCOOLING'
   ** Warning ** In Output:Table:Monthly 'BUILDING ENERGY PERFORMANCE - DISTRICT COOLING PEAK DEMAND' invalid Variable or Meter Name 'COGENERATION:DISTRICTCOOLING'
   ** Warning ** Processing Monthly Tabular Reports: Variable names not valid for this simulation
   **   ~~~   ** ...use Output:Diagnostics,DisplayExtraWarnings; to show more details on individual variables.
   ** Warning ** CalcEquipmentFlowRates: "OFFICE WHOLEBUILDING - SM OFFICE 2 - 90.1-2004 SERVICE WATER USE 0.04GPM AT 140F" - Target water temperature is greater than the hot water temperature by (40.40 C)
   **   ~~~   **  Environment=RUN PERIOD 1, at Simulation time=01/02 06:00 - 07:00
   **   ~~~   ** ...target water temperature     = 60.00 C
   **   ~~~   ** ...hot water temperature        = 19.60 C
   **   ~~~   ** ...Target water temperature should be less than or equal to the hot water temperature. Verify temperature setpoints and schedules.
   ** Warning ** CalcDoe2DXCoil: Coil:Cooling:DX:SingleSpeed "ZONE OFFICE WHOLEBUILDING - SM OFFICE 2 A  - STORY GROUND PSZ-AC 1SPD DX AC CLG COIL 22KBTU/HR 9.7SEER" - Air-cooled condenser inlet dry-bulb temperature below 0 C. Outdoor dry-bulb temperature = -4.40
   **   ~~~   **  ... Occurrence info = RUN PERIOD 1, 01/09 00:00 - 00:06
   **   ~~~   ** ... Operation at low ambient temperatures may require special performance curves.
   ** Warning ** CalcDoe2DXCoil: Coil:Cooling:DX:SingleSpeed "ZONE OFFICE WHOLEBUILDING - SM OFFICE 2 A END_A - STORY GROUND PSZ-AC 1SPD DX AC CLG COIL 9KBTU/HR 9.7SEER" - Air-cooled condenser inlet dry-bulb temperature below 0 C. Outdoor dry-bulb temperature = -4.40
   **   ~~~   **  ... Occurrence info = RUN PERIOD 1, 01/09 00:00 - 00:06
   **   ~~~   ** ... Operation at low ambient temperatures may require special performance curves.
   ** Warning ** CalcDoe2DXCoil: Coil:Cooling:DX:SingleSpeed "ZONE OFFICE WHOLEBUILDING - SM OFFICE 2 A END_B - STORY GROUND PSZ-AC 1SPD DX AC CLG COIL 8KBTU/HR 9.7SEER" - Air-cooled condenser inlet dry-bulb temperature below 0 C. Outdoor dry-bulb temperature = -4.40
   **   ~~~   **  ... Occurrence info = RUN PERIOD 1, 01/09 00:00 - 00:06
   **   ~~~   ** ... Operation at low ambient temperatures may require special performance curves.
   ** Warning ** CalcDoe2DXCoil: Coil:Cooling:DX:SingleSpeed "ZONE OFFICE WHOLEBUILDING - SM OFFICE 2 B  - STORY GROUND PSZ-AC 1SPD DX AC CLG COIL 16KBTU/HR 9.7SEER" - Air-cooled condenser inlet dry-bulb temperature below 0 C. Outdoor dry-bulb temperature = -4.40
   **   ~~~   **  ... Occurrence info = RUN PERIOD 1, 01/09 00:00 - 00:06
   **   ~~~   ** ... Operation at low ambient temperatures may require special performance curves.
   ** Warning ** CalcDoe2DXCoil: Coil:Cooling:DX:SingleSpeed "ZONE OFFICE WHOLEBUILDING - SM OFFICE 2 B  - STORY GROUND PSZ-AC 1SPD DX AC CLG COIL 16KBTU/HR 9.7SEER" - Full load outlet air dry-bulb temperature < 2C. This indicates the possibility of coil frost/freeze. Outlet temperature = -1.02 C.
   **   ~~~   **  ...Occurrence info = RUN PERIOD 1, 01/09 00:00 - 00:06
   **   ~~~   ** ... Possible reasons for low outlet air dry-bulb temperatures are: This DX coil
   **   ~~~   **    1) may have a low inlet air dry-bulb temperature. Inlet air temperature = 12.004 C.
   **   ~~~   **    2) may have a low air flow rate per watt of cooling capacity. Check inputs.
   **   ~~~   **    3) is used as part of a HX assisted cooling coil which uses a high sensible effectiveness. Check inputs.
   ** Warning ** CalcDoe2DXCoil: Coil:Cooling:DX:SingleSpeed "ZONE OFFICE WHOLEBUILDING - SM OFFICE 2 B END_A - STORY GROUND PSZ-AC 1SPD DX AC CLG COIL 10KBTU/HR 9.7SEER" - Air-cooled condenser inlet dry-bulb temperature below 0 C. Outdoor dry-bulb temperature = -4.40
   **   ~~~   **  ... Occurrence info = RUN PERIOD 1, 01/09 00:00 - 00:06
   **   ~~~   ** ... Operation at low ambient temperatures may require special performance curves.
   ** Warning ** CalcDoe2DXCoil: Coil:Cooling:DX:SingleSpeed "ZONE OFFICE WHOLEBUILDING - SM OFFICE 2 B END_B - STORY GROUND PSZ-AC 1SPD DX AC CLG COIL 10KBTU/HR 9.7SEER" - Air-cooled condenser inlet dry-bulb temperature below 0 C. Outdoor dry-bulb temperature = -4.40
   **   ~~~   **  ... Occurrence info = RUN PERIOD 1, 01/09 00:00 - 00:06
   **   ~~~   ** ... Operation at low ambient temperatures may require special performance curves.
   ** Warning ** CalcDoe2DXCoil: Coil:Cooling:DX:SingleSpeed "ZONE OFFICE WHOLEBUILDING - SM OFFICE 2 C  - STORY GROUND PSZ-AC 1SPD DX AC CLG COIL 10KBTU/HR 9.7SEER" - Air-cooled condenser inlet dry-bulb temperature below 0 C. Outdoor dry-bulb temperature = -4.40
   **   ~~~   **  ... Occurrence info = RUN PERIOD 1, 01/09 00:00 - 00:06
   **   ~~~   ** ... Operation at low ambient temperatures may require special performance curves.
   ** Warning ** CalcDoe2DXCoil: Coil:Cooling:DX:SingleSpeed "ZONE OFFICE WHOLEBUILDING - SM OFFICE 2 C  - STORY GROUND PSZ-AC 1SPD DX AC CLG COIL 10KBTU/HR 9.7SEER" - Full load outlet air dry-bulb temperature < 2C. This indicates the possibility of coil frost/freeze. Outlet temperature = -0.41 C.
   **   ~~~   **  ...Occurrence info = RUN PERIOD 1, 01/09 00:00 - 00:06
   **   ~~~   ** ... Possible reasons for low outlet air dry-bulb temperatures are: This DX coil
   **   ~~~   **    1) may have a low inlet air dry-bulb temperature. Inlet air temperature = 12.620 C.
   **   ~~~   **    2) may have a low air flow rate per watt of cooling capacity. Check inputs.
   **   ~~~   **    3) is used as part of a HX assisted cooling coil which uses a high sensible effectiveness. Check inputs.
   ** Warning ** CalcDoe2DXCoil: Coil:Cooling:DX:SingleSpeed "ZONE OFFICE WHOLEBUILDING - SM OFFICE 2 C END_A - STORY GROUND PSZ-AC 1SPD DX AC CLG COIL 7KBTU/HR 9.7SEER" - Air-cooled condenser inlet dry-bulb temperature below 0 C. Outdoor dry-bulb temperature = -4.40
   **   ~~~   **  ... Occurrence info = RUN PERIOD 1, 01/09 00:00 - 00:06
   **   ~~~   ** ... Operation at low ambient temperatures may require special performance curves.
   ** Warning ** CalcDoe2DXCoil: Coil:Cooling:DX:SingleSpeed "ZONE OFFICE WHOLEBUILDING - SM OFFICE 2 C END_B - STORY GROUND PSZ-AC 1SPD DX AC CLG COIL 6KBTU/HR 9.7SEER" - Air-cooled condenser inlet dry-bulb temperature below 0 C. Outdoor dry-bulb temperature = -4.40
   **   ~~~   **  ... Occurrence info = RUN PERIOD 1, 01/09 00:00 - 00:06
   **   ~~~   ** ... Operation at low ambient temperatures may require special performance curves.
   ** Warning ** CalcDoe2DXCoil: Coil:Cooling:DX:SingleSpeed "ZONE OFFICE WHOLEBUILDING - SM OFFICE 2 B END_A - STORY GROUND PSZ-AC 1SPD DX AC CLG COIL 10KBTU/HR 9.7SEER" - Full load outlet air dry-bulb temperature < 2C. This indicates the possibility of coil frost/freeze. Outlet temperature = -0.18 C.
   **   ~~~   **  ...Occurrence info = RUN PERIOD 1, 01/09 00:24 - 00:30
   **   ~~~   ** ... Possible reasons for low outlet air dry-bulb temperatures are: This DX coil
   **   ~~~   **    1) may have a low inlet air dry-bulb temperature. Inlet air temperature = 12.846 C.
   **   ~~~   **    2) may have a low air flow rate per watt of cooling capacity. Check inputs.
   **   ~~~   **    3) is used as part of a HX assisted cooling coil which uses a high sensible effectiveness. Check inputs.
   ** Warning ** CalcDoe2DXCoil: Coil:Cooling:DX:SingleSpeed "ZONE OFFICE WHOLEBUILDING - SM OFFICE 2 B END_B - STORY GROUND PSZ-AC 1SPD DX AC CLG COIL 10KBTU/HR 9.7SEER" - Full load outlet air dry-bulb temperature < 2C. This indicates the possibility of coil frost/freeze. Outlet temperature = -0.20 C.
   **   ~~~   **  ...Occurrence info = RUN PERIOD 1, 01/09 00:24 - 00:30
   **   ~~~   ** ... Possible reasons for low outlet air dry-bulb temperatures are: This DX coil
   **   ~~~   **    1) may have a low inlet air dry-bulb temperature. Inlet air temperature = 12.818 C.
   **   ~~~   **    2) may have a low air flow rate per watt of cooling capacity. Check inputs.
   **   ~~~   **    3) is used as part of a HX assisted cooling coil which uses a high sensible effectiveness. Check inputs.
   ** Warning ** More than 4% of time (350.4 hours) uncomfortable in one or more zones 
   **   ~~~   ** Based on ASHRAE 55-2004 graph (Section 5.2.1.1)
   **   ~~~   ** During Environment [01/01/2006 - 12/31/2006]: RUN PERIOD 1
   **   ~~~   ** 6652.0 hours were uncomfortable in zone: ZONE OFFICE WHOLEBUILDING - SM OFFICE 2 A  - STORY GROUND
   **   ~~~   ** 6665.0 hours were uncomfortable in zone: ZONE OFFICE WHOLEBUILDING - SM OFFICE 2 A END_A - STORY GROUND
   **   ~~~   ** 6644.0 hours were uncomfortable in zone: ZONE OFFICE WHOLEBUILDING - SM OFFICE 2 A END_B - STORY GROUND
   **   ~~~   ** 6652.0 hours were uncomfortable in zone: ZONE OFFICE WHOLEBUILDING - SM OFFICE 2 B  - STORY GROUND
   **   ~~~   ** 6675.0 hours were uncomfortable in zone: ZONE OFFICE WHOLEBUILDING - SM OFFICE 2 B END_A - STORY GROUND
   **   ~~~   ** 6622.0 hours were uncomfortable in zone: ZONE OFFICE WHOLEBUILDING - SM OFFICE 2 B END_B - STORY GROUND
   **   ~~~   ** 7408.0 hours were uncomfortable in zone: ZONE OFFICE WHOLEBUILDING - SM OFFICE 2 C  - STORY GROUND
   **   ~~~   ** 7165.0 hours were uncomfortable in zone: ZONE OFFICE WHOLEBUILDING - SM OFFICE 2 C END_A - STORY GROUND
   **   ~~~   ** 7091.0 hours were uncomfortable in zone: ZONE OFFICE WHOLEBUILDING - SM OFFICE 2 C END_B - STORY GROUND
   ** Warning ** The resource referenced by LifeCycleCost:UsePriceEscalation= "U.S. AVG  COMMERCIAL-ELECTRICITY" has no energy cost. 
   **   ~~~   ** ... It is likely that the wrong resource is used. The resource should match the meter used in Utility:Tariff.
   ** Warning ** The resource referenced by LifeCycleCost:UsePriceEscalation= "U.S. AVG  COMMERCIAL-DISTILLATE OIL" has no energy cost. 
   **   ~~~   ** ... It is likely that the wrong resource is used. The resource should match the meter used in Utility:Tariff.
   ** Warning ** The resource referenced by LifeCycleCost:UsePriceEscalation= "U.S. AVG  COMMERCIAL-RESIDUAL OIL" has no energy cost. 
   **   ~~~   ** ... It is likely that the wrong resource is used. The resource should match the meter used in Utility:Tariff.
   ** Warning ** The resource referenced by LifeCycleCost:UsePriceEscalation= "U.S. AVG  COMMERCIAL-NATURAL GAS" has no energy cost. 
   **   ~~~   ** ... It is likely that the wrong resource is used. The resource should match the meter used in Utility:Tariff.
   ** Warning ** The resource referenced by LifeCycleCost:UsePriceEscalation= "U.S. AVG  COMMERCIAL-COAL" has no energy cost. 
   **   ~~~   ** ... It is likely that the wrong resource is used. The resource should match the meter used in Utility:Tariff.
   ************* Simulation Error Summary *************
   ************* There are 3 unused schedules in input.
   ************* There are 7 unused week schedules in input.
   ************* There are 15 unused day schedules in input.
   ************* Use Output:Diagnostics,DisplayUnusedSchedules; to see them.
   *************
   ************* ===== Recurring Error Summary =====
   ************* The following recurring error messages occurred.
   *************
   *************  ** Warning ** "OFFICE WHOLEBUILDING - SM OFFICE 2 - 90.1-2004 SERVICE WATER USE 0.04GPM AT 140F" - Target water temperature should be less than or equal to the hot water temperature error continues...
   *************  **   ~~~   **   This error occurred 79735 total times;
   *************  **   ~~~   **   during Warmup 0 times;
   *************  **   ~~~   **   during Sizing 0 times.
   *************  **   ~~~   **   Max=40.4  Min=33.44598
   *************
   *************  ** Warning ** Plant loop falling below lower temperature limit, PlantLoop="OFFICE SHARED SERVICE WATER LOOP"
   *************  **   ~~~   **   This error occurred 862 total times;
   *************  **   ~~~   **   during Warmup 0 times;
   *************  **   ~~~   **   during Sizing 0 times.
   *************  **   ~~~   **   Min=0.348353
   *************
   *************  ** Warning ** CalcDoe2DXCoil: Coil:Cooling:DX:SingleSpeed="ZONE OFFICE WHOLEBUILDING - SM OFFICE 2 A  - STORY GROUND PSZ-AC 1SPD DX AC CLG COIL 22KBTU/HR 9.7SEER" - Low condenser dry-bulb temperature error continues...
   *************  **   ~~~   **   This error occurred 1 total times;
   *************  **   ~~~   **   during Warmup 0 times;
   *************  **   ~~~   **   during Sizing 0 times.
   *************  **   ~~~   **   Max=-4.4 [C]  Min=-4.4 [C]
   *************
   *************  ** Warning ** CalcDoe2DXCoil: Coil:Cooling:DX:SingleSpeed="ZONE OFFICE WHOLEBUILDING - SM OFFICE 2 A END_A - STORY GROUND PSZ-AC 1SPD DX AC CLG COIL 9KBTU/HR 9.7SEER" - Low condenser dry-bulb temperature error continues...
   *************  **   ~~~   **   This error occurred 1 total times;
   *************  **   ~~~   **   during Warmup 0 times;
   *************  **   ~~~   **   during Sizing 0 times.
   *************  **   ~~~   **   Max=-4.4 [C]  Min=-4.4 [C]
   *************
   *************  ** Warning ** CalcDoe2DXCoil: Coil:Cooling:DX:SingleSpeed="ZONE OFFICE WHOLEBUILDING - SM OFFICE 2 A END_B - STORY GROUND PSZ-AC 1SPD DX AC CLG COIL 8KBTU/HR 9.7SEER" - Low condenser dry-bulb temperature error continues...
   *************  **   ~~~   **   This error occurred 1 total times;
   *************  **   ~~~   **   during Warmup 0 times;
   *************  **   ~~~   **   during Sizing 0 times.
   *************  **   ~~~   **   Max=-4.4 [C]  Min=-4.4 [C]
   *************
   *************  ** Warning ** CalcDoe2DXCoil: Coil:Cooling:DX:SingleSpeed="ZONE OFFICE WHOLEBUILDING - SM OFFICE 2 B  - STORY GROUND PSZ-AC 1SPD DX AC CLG COIL 16KBTU/HR 9.7SEER" - Low condenser dry-bulb temperature error continues...
   *************  **   ~~~   **   This error occurred 10 total times;
   *************  **   ~~~   **   during Warmup 0 times;
   *************  **   ~~~   **   during Sizing 0 times.
   *************  **   ~~~   **   Max=-4.4 [C]  Min=-4.4 [C]
   *************
   *************  ** Warning ** CalcDoe2DXCoil: Coil:Cooling:DX:SingleSpeed="ZONE OFFICE WHOLEBUILDING - SM OFFICE 2 B  - STORY GROUND PSZ-AC 1SPD DX AC CLG COIL 16KBTU/HR 9.7SEER" - Full load outlet temperature indicates a possibility of frost/freeze error continues. Outlet air temperature statistics follow:
   *************  **   ~~~   **   This error occurred 10 total times;
   *************  **   ~~~   **   during Warmup 0 times;
   *************  **   ~~~   **   during Sizing 0 times.
   *************  **   ~~~   **   Max=-1.022093  Min=-3.508356
   *************
   *************  ** Warning ** CalcDoe2DXCoil: Coil:Cooling:DX:SingleSpeed="ZONE OFFICE WHOLEBUILDING - SM OFFICE 2 B END_A - STORY GROUND PSZ-AC 1SPD DX AC CLG COIL 10KBTU/HR 9.7SEER" - Low condenser dry-bulb temperature error continues...
   *************  **   ~~~   **   This error occurred 7 total times;
   *************  **   ~~~   **   during Warmup 0 times;
   *************  **   ~~~   **   during Sizing 0 times.
   *************  **   ~~~   **   Max=-4.4 [C]  Min=-4.4 [C]
   *************
   *************  ** Warning ** CalcDoe2DXCoil: Coil:Cooling:DX:SingleSpeed="ZONE OFFICE WHOLEBUILDING - SM OFFICE 2 B END_B - STORY GROUND PSZ-AC 1SPD DX AC CLG COIL 10KBTU/HR 9.7SEER" - Low condenser dry-bulb temperature error continues...
   *************  **   ~~~   **   This error occurred 7 total times;
   *************  **   ~~~   **   during Warmup 0 times;
   *************  **   ~~~   **   during Sizing 0 times.
   *************  **   ~~~   **   Max=-4.4 [C]  Min=-4.4 [C]
   *************
   *************  ** Warning ** CalcDoe2DXCoil: Coil:Cooling:DX:SingleSpeed="ZONE OFFICE WHOLEBUILDING - SM OFFICE 2 C  - STORY GROUND PSZ-AC 1SPD DX AC CLG COIL 10KBTU/HR 9.7SEER" - Low condenser dry-bulb temperature error continues...
   *************  **   ~~~   **   This error occurred 2 total times;
   *************  **   ~~~   **   during Warmup 0 times;
   *************  **   ~~~   **   during Sizing 0 times.
   *************  **   ~~~   **   Max=-4.4 [C]  Min=-4.4 [C]
   *************
   *************  ** Warning ** CalcDoe2DXCoil: Coil:Cooling:DX:SingleSpeed="ZONE OFFICE WHOLEBUILDING - SM OFFICE 2 C  - STORY GROUND PSZ-AC 1SPD DX AC CLG COIL 10KBTU/HR 9.7SEER" - Full load outlet temperature indicates a possibility of frost/freeze error continues. Outlet air temperature statistics follow:
   *************  **   ~~~   **   This error occurred 2 total times;
   *************  **   ~~~   **   during Warmup 0 times;
   *************  **   ~~~   **   during Sizing 0 times.
   *************  **   ~~~   **   Max=-0.408383  Min=-1.686628
   *************
   *************  ** Warning ** CalcDoe2DXCoil: Coil:Cooling:DX:SingleSpeed="ZONE OFFICE WHOLEBUILDING - SM OFFICE 2 C END_A - STORY GROUND PSZ-AC 1SPD DX AC CLG COIL 7KBTU/HR 9.7SEER" - Low condenser dry-bulb temperature error continues...
   *************  **   ~~~   **   This error occurred 1 total times;
   *************  **   ~~~   **   during Warmup 0 times;
   *************  **   ~~~   **   during Sizing 0 times.
   *************  **   ~~~   **   Max=-4.4 [C]  Min=-4.4 [C]
   *************
   *************  ** Warning ** CalcDoe2DXCoil: Coil:Cooling:DX:SingleSpeed="ZONE OFFICE WHOLEBUILDING - SM OFFICE 2 C END_B - STORY GROUND PSZ-AC 1SPD DX AC CLG COIL 6KBTU/HR 9.7SEER" - Low condenser dry-bulb temperature error continues...
   *************  **   ~~~   **   This error occurred 1 total times;
   *************  **   ~~~   **   during Warmup 0 times;
   *************  **   ~~~   **   during Sizing 0 times.
   *************  **   ~~~   **   Max=-4.4 [C]  Min=-4.4 [C]
   *************
   *************  ** Warning ** CalcDoe2DXCoil: Coil:Cooling:DX:SingleSpeed="ZONE OFFICE WHOLEBUILDING - SM OFFICE 2 B END_A - STORY GROUND PSZ-AC 1SPD DX AC CLG COIL 10KBTU/HR 9.7SEER" - Full load outlet temperature indicates a possibility of frost/freeze error continues. Outlet air temperature statistics follow:
   *************  **   ~~~   **   This error occurred 6 total times;
   *************  **   ~~~   **   during Warmup 0 times;
   *************  **   ~~~   **   during Sizing 0 times.
   *************  **   ~~~   **   Max=-6.084471E-002  Min=-0.175953
   *************
   *************  ** Warning ** CalcDoe2DXCoil: Coil:Cooling:DX:SingleSpeed="ZONE OFFICE WHOLEBUILDING - SM OFFICE 2 B END_B - STORY GROUND PSZ-AC 1SPD DX AC CLG COIL 10KBTU/HR 9.7SEER" - Full load outlet temperature indicates a possibility of frost/freeze error continues. Outlet air temperature statistics follow:
   *************  **   ~~~   **   This error occurred 6 total times;
   *************  **   ~~~   **   during Warmup 0 times;
   *************  **   ~~~   **   during Sizing 0 times.
   *************  **   ~~~   **   Max=-0.107454  Min=-0.204803
   *************
   *************
   ************* ===== Final Error Summary =====
   ************* The following error categories occurred.  Consider correcting or noting.
   ************* Nominally Unused Constructions
   ************* ..The nominally unused constructions warning is provided to alert you to potential conditions that can cause
   ************* ..extra time during simulation. Each construction is calculated by the algorithm indicated in the HeatBalanceAlgorithm
   ************* ..object. You may remove the constructions indicated (when you use the DisplayExtraWarnings option).
   *************
   ************* EnergyPlus Warmup Error Summary. During Warmup: 0 Warning; 0 Severe Errors.
   ************* EnergyPlus Sizing Error Summary. During Sizing: 22 Warning; 1 Severe Errors.
   ************* EnergyPlus Completed Successfully-- 80781 Warning; 1 Severe Errors; Elapsed Time=00hr 00min  5.48sec
