Program Version,EnergyPlus, Version 23.1.0-87ed9199d4, YMD=2023.06.03 16:12
! This file shows details about the branches, nodes, and other
! elements of the flow connections.
! This file is intended for use in "debugging" potential problems
! that may also be detected by the program, but may be more easily
! identified by "eye".
! This file is also intended to support software which draws a
! schematic diagram of the HVAC system.
! ===============================================================
! #Nodes,<Number of Unique Nodes>
 #Nodes,195
! <Node>,<NodeNumber>,<Node Name>,<Node Fluid Type>,<# Times Node Referenced After Definition>
 Node,1,ZONE OFFICE WHOLEBUILDING - MD OFFICE A  - STORY GROUND PSZ-AC DIFFUSER OUTLET AIR NODE,Air,4
 Node,2,ZONE OFFICE WHOLEBUILDING - MD OFFICE A  - STORY GROUND RETURN AIR NODE,Air,2
 Node,3,ZONE OFFICE WHOLEBUILDING - MD OFFICE A END_A - STORY GROUND PSZ-AC DIFFUSER OUTLET AIR NODE,Air,4
 Node,4,ZONE OFFICE WHOLEBUILDING - MD OFFICE A END_A - STORY GROUND RETURN AIR NODE,Air,2
 Node,5,ZONE OFFICE WHOLEBUILDING - MD OFFICE A END_B - STORY GROUND PSZ-AC DIFFUSER OUTLET AIR NODE,Air,4
 Node,6,ZONE OFFICE WHOLEBUILDING - MD OFFICE A END_B - STORY GROUND RETURN AIR NODE,Air,2
 Node,7,ZONE OFFICE WHOLEBUILDING - MD OFFICE B  - STORY GROUND PSZ-AC DIFFUSER OUTLET AIR NODE,Air,4
 Node,8,ZONE OFFICE WHOLEBUILDING - MD OFFICE B  - STORY GROUND RETURN AIR NODE,Air,2
 Node,9,ZONE OFFICE WHOLEBUILDING - MD OFFICE B END_A - STORY GROUND PSZ-AC DIFFUSER OUTLET AIR NODE,Air,4
 Node,10,ZONE OFFICE WHOLEBUILDING - MD OFFICE B END_A - STORY GROUND RETURN AIR NODE,Air,2
 Node,11,ZONE OFFICE WHOLEBUILDING - MD OFFICE B END_B - STORY GROUND PSZ-AC DIFFUSER OUTLET AIR NODE,Air,4
 Node,12,ZONE OFFICE WHOLEBUILDING - MD OFFICE B END_B - STORY GROUND RETURN AIR NODE,Air,2
 Node,13,ZONE OFFICE WHOLEBUILDING - MD OFFICE C  - STORY GROUND PSZ-AC DIFFUSER OUTLET AIR NODE,Air,4
 Node,14,ZONE OFFICE WHOLEBUILDING - MD OFFICE C  - STORY GROUND RETURN AIR NODE,Air,2
 Node,15,ZONE OFFICE WHOLEBUILDING - MD OFFICE C END_A - STORY GROUND PSZ-AC DIFFUSER OUTLET AIR NODE,Air,4
 Node,16,ZONE OFFICE WHOLEBUILDING - MD OFFICE C END_A - STORY GROUND RETURN AIR NODE,Air,2
 Node,17,ZONE OFFICE WHOLEBUILDING - MD OFFICE C END_B - STORY GROUND PSZ-AC DIFFUSER OUTLET AIR NODE,Air,4
 Node,18,ZONE OFFICE WHOLEBUILDING - MD OFFICE C END_B - STORY GROUND RETURN AIR NODE,Air,2
 Node,19,ZONE OFFICE WHOLEBUILDING - MD OFFICE A  - STORY GROUND PSZ-AC SUPPLY OUTLET NODE,Air,6
 Node,20,ZONE OFFICE WHOLEBUILDING - MD OFFICE A  - STORY GROUND PSZ-AC DEMAND INLET NODE,Air,3
 Node,21,ZONE OFFICE WHOLEBUILDING - MD OFFICE A END_A - STORY GROUND PSZ-AC SUPPLY OUTLET NODE,Air,6
 Node,22,ZONE OFFICE WHOLEBUILDING - MD OFFICE A END_A - STORY GROUND PSZ-AC DEMAND INLET NODE,Air,3
 Node,23,ZONE OFFICE WHOLEBUILDING - MD OFFICE A END_B - STORY GROUND PSZ-AC SUPPLY OUTLET NODE,Air,6
 Node,24,ZONE OFFICE WHOLEBUILDING - MD OFFICE A END_B - STORY GROUND PSZ-AC DEMAND INLET NODE,Air,3
 Node,25,ZONE OFFICE WHOLEBUILDING - MD OFFICE B  - STORY GROUND PSZ-AC SUPPLY OUTLET NODE,Air,6
 Node,26,ZONE OFFICE WHOLEBUILDING - MD OFFICE B  - STORY GROUND PSZ-AC DEMAND INLET NODE,Air,3
 Node,27,ZONE OFFICE WHOLEBUILDING - MD OFFICE B END_A - STORY GROUND PSZ-AC SUPPLY OUTLET NODE,Air,6
 Node,28,ZONE OFFICE WHOLEBUILDING - MD OFFICE B END_A - STORY GROUND PSZ-AC DEMAND INLET NODE,Air,3
 Node,29,ZONE OFFICE WHOLEBUILDING - MD OFFICE B END_B - STORY GROUND PSZ-AC SUPPLY OUTLET NODE,Air,6
 Node,30,ZONE OFFICE WHOLEBUILDING - MD OFFICE B END_B - STORY GROUND PSZ-AC DEMAND INLET NODE,Air,3
 Node,31,ZONE OFFICE WHOLEBUILDING - MD OFFICE C  - STORY GROUND PSZ-AC SUPPLY OUTLET NODE,Air,6
 Node,32,ZONE OFFICE WHOLEBUILDING - MD OFFICE C  - STORY GROUND PSZ-AC DEMAND INLET NODE,Air,3
 Node,33,ZONE OFFICE WHOLEBUILDING - MD OFFICE C END_A - STORY GROUND PSZ-AC SUPPLY OUTLET NODE,Air,6
 Node,34,ZONE OFFICE WHOLEBUILDING - MD OFFICE C END_A - STORY GROUND PSZ-AC DEMAND INLET NODE,Air,3
 Node,35,ZONE OFFICE WHOLEBUILDING - MD OFFICE C END_B - STORY GROUND PSZ-AC SUPPLY OUTLET NODE,Air,6
 Node,36,ZONE OFFICE WHOLEBUILDING - MD OFFICE C END_B - STORY GROUND PSZ-AC DEMAND INLET NODE,Air,3
 Node,37,ZONE OFFICE WHOLEBUILDING - MD OFFICE A  - STORY GROUND PSZ-AC SUPPLY INLET NODE,Air,3
 Node,38,ZONE OFFICE WHOLEBUILDING - MD OFFICE A  - STORY GROUND PSZ-AC MIXED AIR NODE,Air,6
 Node,39,ZONE OFFICE WHOLEBUILDING - MD OFFICE A END_A - STORY GROUND PSZ-AC SUPPLY INLET NODE,Air,3
 Node,40,ZONE OFFICE WHOLEBUILDING - MD OFFICE A END_A - STORY GROUND PSZ-AC MIXED AIR NODE,Air,6
 Node,41,ZONE OFFICE WHOLEBUILDING - MD OFFICE A END_B - STORY GROUND PSZ-AC SUPPLY INLET NODE,Air,3
 Node,42,ZONE OFFICE WHOLEBUILDING - MD OFFICE A END_B - STORY GROUND PSZ-AC MIXED AIR NODE,Air,6
 Node,43,ZONE OFFICE WHOLEBUILDING - MD OFFICE B  - STORY GROUND PSZ-AC SUPPLY INLET NODE,Air,3
 Node,44,ZONE OFFICE WHOLEBUILDING - MD OFFICE B  - STORY GROUND PSZ-AC MIXED AIR NODE,Air,6
 Node,45,ZONE OFFICE WHOLEBUILDING - MD OFFICE B END_A - STORY GROUND PSZ-AC SUPPLY INLET NODE,Air,3
 Node,46,ZONE OFFICE WHOLEBUILDING - MD OFFICE B END_A - STORY GROUND PSZ-AC MIXED AIR NODE,Air,6
 Node,47,ZONE OFFICE WHOLEBUILDING - MD OFFICE B END_B - STORY GROUND PSZ-AC SUPPLY INLET NODE,Air,3
 Node,48,ZONE OFFICE WHOLEBUILDING - MD OFFICE B END_B - STORY GROUND PSZ-AC MIXED AIR NODE,Air,6
 Node,49,ZONE OFFICE WHOLEBUILDING - MD OFFICE C  - STORY GROUND PSZ-AC SUPPLY INLET NODE,Air,3
 Node,50,ZONE OFFICE WHOLEBUILDING - MD OFFICE C  - STORY GROUND PSZ-AC MIXED AIR NODE,Air,6
 Node,51,ZONE OFFICE WHOLEBUILDING - MD OFFICE C END_A - STORY GROUND PSZ-AC SUPPLY INLET NODE,Air,3
 Node,52,ZONE OFFICE WHOLEBUILDING - MD OFFICE C END_A - STORY GROUND PSZ-AC MIXED AIR NODE,Air,6
 Node,53,ZONE OFFICE WHOLEBUILDING - MD OFFICE C END_B - STORY GROUND PSZ-AC SUPPLY INLET NODE,Air,3
 Node,54,ZONE OFFICE WHOLEBUILDING - MD OFFICE C END_B - STORY GROUND PSZ-AC MIXED AIR NODE,Air,6
 Node,55,HOT WATER LOOP SUPPLY INLET NODE,Water,2
 Node,56,HOT WATER LOOP PUMP OUTLET WATER NODE,Water,1
 Node,57,HOT WATER LOOP DISTRICT HEATING INLET WATER NODE,Water,1
 Node,58,HOT WATER LOOP DISTRICT HEATING OUTLET WATER NODE,Water,1
 Node,59,HOT WATER LOOP SUPPLY EQUIPMENT BYPASS INLET WATER NODE,Water,1
 Node,60,HOT WATER LOOP SUPPLY EQUIPMENT BYPASS OUTLET WATER NODE,Water,1
 Node,61,HOT WATER LOOP SUPPLY OUTLET INLET WATER NODE,Water,1
 Node,62,HOT WATER LOOP SUPPLY OUTLET NODE,Water,4
 Node,63,HOT WATER LOOP DEMAND INLET NODE,Water,2
 Node,64,HOT WATER LOOP DEMAND INLET OUTLET WATER NODE,Water,1
 Node,65,HOT WATER LOOP COIL BYPASS INLET WATER NODE,Water,1
 Node,66,HOT WATER LOOP COIL BYPASS OUTLET WATER NODE,Water,1
 Node,67,ZONE OFFICE WHOLEBUILDING - MD OFFICE A  - STORY GROUND PSZ-AC WATER HTG COIL INLET WATER NODE,Water,1
 Node,68,ZONE OFFICE WHOLEBUILDING - MD OFFICE A  - STORY GROUND PSZ-AC WATER HTG COIL OUTLET WATER NODE,Water,1
 Node,69,ZONE OFFICE WHOLEBUILDING - MD OFFICE A END_A - STORY GROUND PSZ-AC WATER HTG COIL INLET WATER NODE,Water,1
 Node,70,ZONE OFFICE WHOLEBUILDING - MD OFFICE A END_A - STORY GROUND PSZ-AC WATER HTG COIL OUTLET WATER NODE,Water,1
 Node,71,ZONE OFFICE WHOLEBUILDING - MD OFFICE A END_B - STORY GROUND PSZ-AC WATER HTG COIL INLET WATER NODE,Water,1
 Node,72,ZONE OFFICE WHOLEBUILDING - MD OFFICE A END_B - STORY GROUND PSZ-AC WATER HTG COIL OUTLET WATER NODE,Water,1
 Node,73,ZONE OFFICE WHOLEBUILDING - MD OFFICE B  - STORY GROUND PSZ-AC WATER HTG COIL INLET WATER NODE,Water,1
 Node,74,ZONE OFFICE WHOLEBUILDING - MD OFFICE B  - STORY GROUND PSZ-AC WATER HTG COIL OUTLET WATER NODE,Water,1
 Node,75,ZONE OFFICE WHOLEBUILDING - MD OFFICE B END_A - STORY GROUND PSZ-AC WATER HTG COIL INLET WATER NODE,Water,1
 Node,76,ZONE OFFICE WHOLEBUILDING - MD OFFICE B END_A - STORY GROUND PSZ-AC WATER HTG COIL OUTLET WATER NODE,Water,1
 Node,77,ZONE OFFICE WHOLEBUILDING - MD OFFICE B END_B - STORY GROUND PSZ-AC WATER HTG COIL INLET WATER NODE,Water,1
 Node,78,ZONE OFFICE WHOLEBUILDING - MD OFFICE B END_B - STORY GROUND PSZ-AC WATER HTG COIL OUTLET WATER NODE,Water,1
 Node,79,ZONE OFFICE WHOLEBUILDING - MD OFFICE C  - STORY GROUND PSZ-AC WATER HTG COIL INLET WATER NODE,Water,1
 Node,80,ZONE OFFICE WHOLEBUILDING - MD OFFICE C  - STORY GROUND PSZ-AC WATER HTG COIL OUTLET WATER NODE,Water,1
 Node,81,ZONE OFFICE WHOLEBUILDING - MD OFFICE C END_A - STORY GROUND PSZ-AC WATER HTG COIL INLET WATER NODE,Water,1
 Node,82,ZONE OFFICE WHOLEBUILDING - MD OFFICE C END_A - STORY GROUND PSZ-AC WATER HTG COIL OUTLET WATER NODE,Water,1
 Node,83,ZONE OFFICE WHOLEBUILDING - MD OFFICE C END_B - STORY GROUND PSZ-AC WATER HTG COIL INLET WATER NODE,Water,1
 Node,84,ZONE OFFICE WHOLEBUILDING - MD OFFICE C END_B - STORY GROUND PSZ-AC WATER HTG COIL OUTLET WATER NODE,Water,1
 Node,85,HOT WATER LOOP DEMAND BYPASS PIPE INLET NODE,Water,1
 Node,86,HOT WATER LOOP DEMAND BYPASS PIPE OUTLET NODE,Water,1
 Node,87,HOT WATER LOOP DEMAND OUTLET INLET WATER NODE,Water,1
 Node,88,HOT WATER LOOP DEMAND OUTLET NODE,Water,2
 Node,89,MAIN SERVICE WATER LOOP SUPPLY INLET NODE,Water,2
 Node,90,MAIN SERVICE WATER LOOP WATER MAINS PRESSURE DRIVEN OUTLET WATER NODE,Water,1
 Node,91,40GAL ELECTRICITY WATER HEATER - 40KBTU/HR 1.0 THERM EFF SUPPLY INLET WATER NODE,Water,1
 Node,92,40GAL ELECTRICITY WATER HEATER - 40KBTU/HR 1.0 THERM EFF SUPPLY OUTLET WATER NODE,Water,1
 Node,93,PIPE ADIABATIC 1 INLET WATER NODE,Water,1
 Node,94,PIPE ADIABATIC 1 OUTLET WATER NODE,Water,1
 Node,95,PIPE ADIABATIC 3 INLET WATER NODE,Water,1
 Node,96,MAIN SERVICE WATER LOOP SUPPLY OUTLET NODE,Water,4
 Node,97,MAIN SERVICE WATER LOOP DEMAND INLET NODE,Water,2
 Node,98,MAIN SERVICE WATER LOOP DEMAND INLET PIPE NODE,Water,1
 Node,99,PIPE ADIABATIC 2 INLET WATER NODE,Water,1
 Node,100,PIPE ADIABATIC 2 OUTLET WATER NODE,Water,1
 Node,101,MAIN SERVICE WATER LOOP DEMAND BYPASS PIPE INLET NODE,Water,1
 Node,102,MAIN SERVICE WATER LOOP DEMAND BYPASS PIPE OUTLET NODE,Water,1
 Node,103,PIPE ADIABATIC 4 INLET WATER NODE,Water,1
 Node,104,MAIN SERVICE WATER LOOP DEMAND OUTLET NODE,Water,2
 Node,105,OFFICE SHARED SERVICE WATER LOOP SUPPLY INLET NODE,Water,2
 Node,106,OFFICE SHARED SERVICE WATER LOOP CIRCULATOR PUMP OUTLET WATER NODE,Water,1
 Node,107,40GAL NATURALGAS WATER HEATER - 11KBTU/HR SUPPLY INLET WATER NODE,Water,1
 Node,108,40GAL NATURALGAS WATER HEATER - 11KBTU/HR SUPPLY OUTLET WATER NODE,Water,1
 Node,109,PIPE ADIABATIC 5 INLET WATER NODE,Water,1
 Node,110,PIPE ADIABATIC 5 OUTLET WATER NODE,Water,1
 Node,111,PIPE ADIABATIC 7 INLET WATER NODE,Water,1
 Node,112,OFFICE SHARED SERVICE WATER LOOP SUPPLY OUTLET NODE,Water,4
 Node,113,OFFICE SHARED SERVICE WATER LOOP DEMAND INLET NODE,Water,2
 Node,114,OFFICE SHARED SERVICE WATER LOOP PIPE 280.9982206349351FT OUTLET WATER NODE,Water,1
 Node,115,PIPE ADIABATIC 6 INLET WATER NODE,Water,1
 Node,116,PIPE ADIABATIC 6 OUTLET WATER NODE,Water,1
 Node,117,OFFICE WHOLEBUILDING - MD OFFICE - 90.1-2019 WUC 0.31GPM AT 140F INLET WATER NODE,Water,1
 Node,118,OFFICE WHOLEBUILDING - MD OFFICE - 90.1-2019 WUC 0.31GPM AT 140F OUTLET WATER NODE,Water,1
 Node,119,OFFICE SHARED SERVICE WATER LOOP DEMAND BYPASS PIPE INLET NODE,Water,1
 Node,120,OFFICE SHARED SERVICE WATER LOOP DEMAND BYPASS PIPE OUTLET NODE,Water,1
 Node,121,PIPE ADIABATIC 8 INLET WATER NODE,Water,1
 Node,122,OFFICE SHARED SERVICE WATER LOOP DEMAND OUTLET NODE,Water,2
 Node,123,ZONE OFFICE WHOLEBUILDING - MD OFFICE A  - STORY GROUND ZONE AIR NODE,Air,1
 Node,124,ZONE OFFICE WHOLEBUILDING - MD OFFICE A END_A - STORY GROUND ZONE AIR NODE,Air,1
 Node,125,ZONE OFFICE WHOLEBUILDING - MD OFFICE A END_B - STORY GROUND ZONE AIR NODE,Air,1
 Node,126,ZONE OFFICE WHOLEBUILDING - MD OFFICE B  - STORY GROUND ZONE AIR NODE,Air,1
 Node,127,ZONE OFFICE WHOLEBUILDING - MD OFFICE B END_A - STORY GROUND ZONE AIR NODE,Air,1
 Node,128,ZONE OFFICE WHOLEBUILDING - MD OFFICE B END_B - STORY GROUND ZONE AIR NODE,Air,1
 Node,129,ZONE OFFICE WHOLEBUILDING - MD OFFICE C  - STORY GROUND ZONE AIR NODE,Air,1
 Node,130,ZONE OFFICE WHOLEBUILDING - MD OFFICE C END_A - STORY GROUND ZONE AIR NODE,Air,1
 Node,131,ZONE OFFICE WHOLEBUILDING - MD OFFICE C END_B - STORY GROUND ZONE AIR NODE,Air,1
 Node,132,ZONE OFFICE WHOLEBUILDING - MD OFFICE A  - STORY GROUND PSZ-AC DEMAND OUTLET NODE,Air,2
 Node,133,ZONE OFFICE WHOLEBUILDING - MD OFFICE A END_A - STORY GROUND PSZ-AC DEMAND OUTLET NODE,Air,2
 Node,134,ZONE OFFICE WHOLEBUILDING - MD OFFICE A END_B - STORY GROUND PSZ-AC DEMAND OUTLET NODE,Air,2
 Node,135,ZONE OFFICE WHOLEBUILDING - MD OFFICE B  - STORY GROUND PSZ-AC DEMAND OUTLET NODE,Air,2
 Node,136,ZONE OFFICE WHOLEBUILDING - MD OFFICE B END_A - STORY GROUND PSZ-AC DEMAND OUTLET NODE,Air,2
 Node,137,ZONE OFFICE WHOLEBUILDING - MD OFFICE B END_B - STORY GROUND PSZ-AC DEMAND OUTLET NODE,Air,2
 Node,138,ZONE OFFICE WHOLEBUILDING - MD OFFICE C  - STORY GROUND PSZ-AC DEMAND OUTLET NODE,Air,2
 Node,139,ZONE OFFICE WHOLEBUILDING - MD OFFICE C END_A - STORY GROUND PSZ-AC DEMAND OUTLET NODE,Air,2
 Node,140,ZONE OFFICE WHOLEBUILDING - MD OFFICE C END_B - STORY GROUND PSZ-AC DEMAND OUTLET NODE,Air,2
 Node,141,ZONE OFFICE WHOLEBUILDING - MD OFFICE A  - STORY GROUND PSZ-AC OUTDOOR AIR NODE,Air,2
 Node,142,ZONE OFFICE WHOLEBUILDING - MD OFFICE A END_A - STORY GROUND PSZ-AC OUTDOOR AIR NODE,Air,2
 Node,143,ZONE OFFICE WHOLEBUILDING - MD OFFICE A END_B - STORY GROUND PSZ-AC OUTDOOR AIR NODE,Air,2
 Node,144,ZONE OFFICE WHOLEBUILDING - MD OFFICE B  - STORY GROUND PSZ-AC OUTDOOR AIR NODE,Air,2
 Node,145,ZONE OFFICE WHOLEBUILDING - MD OFFICE B END_A - STORY GROUND PSZ-AC OUTDOOR AIR NODE,Air,2
 Node,146,ZONE OFFICE WHOLEBUILDING - MD OFFICE B END_B - STORY GROUND PSZ-AC OUTDOOR AIR NODE,Air,2
 Node,147,ZONE OFFICE WHOLEBUILDING - MD OFFICE C  - STORY GROUND PSZ-AC OUTDOOR AIR NODE,Air,2
 Node,148,ZONE OFFICE WHOLEBUILDING - MD OFFICE C END_A - STORY GROUND PSZ-AC OUTDOOR AIR NODE,Air,2
 Node,149,ZONE OFFICE WHOLEBUILDING - MD OFFICE C END_B - STORY GROUND PSZ-AC OUTDOOR AIR NODE,Air,2
 Node,150,MODEL OUTDOOR AIR NODE,Air,0
 Node,151,ZONE OFFICE WHOLEBUILDING - MD OFFICE A  - STORY GROUND PSZ-AC UNITARY AC HEATING COIL - FAN NODE,Air,2
 Node,152,ZONE OFFICE WHOLEBUILDING - MD OFFICE A  - STORY GROUND PSZ-AC UNITARY AC FAN - SUPPLEMENTAL COIL NODE,Air,2
 Node,153,ZONE OFFICE WHOLEBUILDING - MD OFFICE A END_A - STORY GROUND PSZ-AC UNITARY AC HEATING COIL - FAN NODE,Air,2
 Node,154,ZONE OFFICE WHOLEBUILDING - MD OFFICE A END_A - STORY GROUND PSZ-AC UNITARY AC FAN - SUPPLEMENTAL COIL NODE,Air,2
 Node,155,ZONE OFFICE WHOLEBUILDING - MD OFFICE A END_B - STORY GROUND PSZ-AC UNITARY AC HEATING COIL - FAN NODE,Air,2
 Node,156,ZONE OFFICE WHOLEBUILDING - MD OFFICE A END_B - STORY GROUND PSZ-AC UNITARY AC FAN - SUPPLEMENTAL COIL NODE,Air,2
 Node,157,ZONE OFFICE WHOLEBUILDING - MD OFFICE B  - STORY GROUND PSZ-AC UNITARY AC HEATING COIL - FAN NODE,Air,2
 Node,158,ZONE OFFICE WHOLEBUILDING - MD OFFICE B  - STORY GROUND PSZ-AC UNITARY AC FAN - SUPPLEMENTAL COIL NODE,Air,2
 Node,159,ZONE OFFICE WHOLEBUILDING - MD OFFICE B END_A - STORY GROUND PSZ-AC UNITARY AC HEATING COIL - FAN NODE,Air,2
 Node,160,ZONE OFFICE WHOLEBUILDING - MD OFFICE B END_A - STORY GROUND PSZ-AC UNITARY AC FAN - SUPPLEMENTAL COIL NODE,Air,2
 Node,161,ZONE OFFICE WHOLEBUILDING - MD OFFICE B END_B - STORY GROUND PSZ-AC UNITARY AC HEATING COIL - FAN NODE,Air,2
 Node,162,ZONE OFFICE WHOLEBUILDING - MD OFFICE B END_B - STORY GROUND PSZ-AC UNITARY AC FAN - SUPPLEMENTAL COIL NODE,Air,2
 Node,163,ZONE OFFICE WHOLEBUILDING - MD OFFICE C  - STORY GROUND PSZ-AC UNITARY AC HEATING COIL - FAN NODE,Air,2
 Node,164,ZONE OFFICE WHOLEBUILDING - MD OFFICE C  - STORY GROUND PSZ-AC UNITARY AC FAN - SUPPLEMENTAL COIL NODE,Air,2
 Node,165,ZONE OFFICE WHOLEBUILDING - MD OFFICE C END_A - STORY GROUND PSZ-AC UNITARY AC HEATING COIL - FAN NODE,Air,2
 Node,166,ZONE OFFICE WHOLEBUILDING - MD OFFICE C END_A - STORY GROUND PSZ-AC UNITARY AC FAN - SUPPLEMENTAL COIL NODE,Air,2
 Node,167,ZONE OFFICE WHOLEBUILDING - MD OFFICE C END_B - STORY GROUND PSZ-AC UNITARY AC HEATING COIL - FAN NODE,Air,2
 Node,168,ZONE OFFICE WHOLEBUILDING - MD OFFICE C END_B - STORY GROUND PSZ-AC UNITARY AC FAN - SUPPLEMENTAL COIL NODE,Air,2
 Node,169,ZONE OFFICE WHOLEBUILDING - MD OFFICE A  - STORY GROUND PSZ-AC DIFFUSER INLET AIR NODE,Air,1
 Node,170,ZONE OFFICE WHOLEBUILDING - MD OFFICE A END_A - STORY GROUND PSZ-AC DIFFUSER INLET AIR NODE,Air,1
 Node,171,ZONE OFFICE WHOLEBUILDING - MD OFFICE A END_B - STORY GROUND PSZ-AC DIFFUSER INLET AIR NODE,Air,1
 Node,172,ZONE OFFICE WHOLEBUILDING - MD OFFICE B  - STORY GROUND PSZ-AC DIFFUSER INLET AIR NODE,Air,1
 Node,173,ZONE OFFICE WHOLEBUILDING - MD OFFICE B END_A - STORY GROUND PSZ-AC DIFFUSER INLET AIR NODE,Air,1
 Node,174,ZONE OFFICE WHOLEBUILDING - MD OFFICE B END_B - STORY GROUND PSZ-AC DIFFUSER INLET AIR NODE,Air,1
 Node,175,ZONE OFFICE WHOLEBUILDING - MD OFFICE C  - STORY GROUND PSZ-AC DIFFUSER INLET AIR NODE,Air,1
 Node,176,ZONE OFFICE WHOLEBUILDING - MD OFFICE C END_A - STORY GROUND PSZ-AC DIFFUSER INLET AIR NODE,Air,1
 Node,177,ZONE OFFICE WHOLEBUILDING - MD OFFICE C END_B - STORY GROUND PSZ-AC DIFFUSER INLET AIR NODE,Air,1
 Node,178,ZONE OFFICE WHOLEBUILDING - MD OFFICE A  - STORY GROUND PSZ-AC RELIEF AIR NODE,Air,1
 Node,179,ZONE OFFICE WHOLEBUILDING - MD OFFICE A END_A - STORY GROUND PSZ-AC RELIEF AIR NODE,Air,1
 Node,180,ZONE OFFICE WHOLEBUILDING - MD OFFICE A END_B - STORY GROUND PSZ-AC RELIEF AIR NODE,Air,1
 Node,181,ZONE OFFICE WHOLEBUILDING - MD OFFICE B  - STORY GROUND PSZ-AC RELIEF AIR NODE,Air,1
 Node,182,ZONE OFFICE WHOLEBUILDING - MD OFFICE B END_A - STORY GROUND PSZ-AC RELIEF AIR NODE,Air,1
 Node,183,ZONE OFFICE WHOLEBUILDING - MD OFFICE B END_B - STORY GROUND PSZ-AC RELIEF AIR NODE,Air,1
 Node,184,ZONE OFFICE WHOLEBUILDING - MD OFFICE C  - STORY GROUND PSZ-AC RELIEF AIR NODE,Air,1
 Node,185,ZONE OFFICE WHOLEBUILDING - MD OFFICE C END_A - STORY GROUND PSZ-AC RELIEF AIR NODE,Air,1
 Node,186,ZONE OFFICE WHOLEBUILDING - MD OFFICE C END_B - STORY GROUND PSZ-AC RELIEF AIR NODE,Air,1
 Node,187,ZONE OFFICE WHOLEBUILDING - MD OFFICE A  - STORY GROUND PSZ-AC UNITARY AC COOLING COIL - HEATING COIL NODE,Air,1
 Node,188,ZONE OFFICE WHOLEBUILDING - MD OFFICE A END_A - STORY GROUND PSZ-AC UNITARY AC COOLING COIL - HEATING COIL NODE,Air,1
 Node,189,ZONE OFFICE WHOLEBUILDING - MD OFFICE A END_B - STORY GROUND PSZ-AC UNITARY AC COOLING COIL - HEATING COIL NODE,Air,1
 Node,190,ZONE OFFICE WHOLEBUILDING - MD OFFICE B  - STORY GROUND PSZ-AC UNITARY AC COOLING COIL - HEATING COIL NODE,Air,1
 Node,191,ZONE OFFICE WHOLEBUILDING - MD OFFICE B END_A - STORY GROUND PSZ-AC UNITARY AC COOLING COIL - HEATING COIL NODE,Air,1
 Node,192,ZONE OFFICE WHOLEBUILDING - MD OFFICE B END_B - STORY GROUND PSZ-AC UNITARY AC COOLING COIL - HEATING COIL NODE,Air,1
 Node,193,ZONE OFFICE WHOLEBUILDING - MD OFFICE C  - STORY GROUND PSZ-AC UNITARY AC COOLING COIL - HEATING COIL NODE,Air,1
 Node,194,ZONE OFFICE WHOLEBUILDING - MD OFFICE C END_A - STORY GROUND PSZ-AC UNITARY AC COOLING COIL - HEATING COIL NODE,Air,1
 Node,195,ZONE OFFICE WHOLEBUILDING - MD OFFICE C END_B - STORY GROUND PSZ-AC UNITARY AC COOLING COIL - HEATING COIL NODE,Air,1
! ===============================================================
! Suspicious nodes have 0 references.  It is normal for some nodes, however.
! Listing nodes with 0 references (culled from previous list):
! <Suspicious Node>,<NodeNumber>,<Node Name>,<Node Fluid Type>,<# Times Node Referenced After Definition>
 Suspicious Node,150,MODEL OUTDOOR AIR NODE,Air,0
! ===============================================================
! <#Branch Lists>,<Number of Branch Lists>
 #Branch Lists,15
! <Branch List>,<Branch List Count>,<Branch List Name>,<Loop Name>,<Loop Type>,<Number of Branches>
! <Branch>,<Branch Count>,<Branch Name>,<Loop Name>,<Loop Type>,<Branch Inlet Node Name>,<Branch Outlet Node Name>
 Branch List,1,ZONE OFFICE WHOLEBUILDING - MD OFFICE A  - STORY GROUND PSZ-AC SUPPLY BRANCHES,ZONE OFFICE WHOLEBUILDING - MD OFFICE A  - STORY GROUND PSZ-AC,Air,1
   Branch,1,ZONE OFFICE WHOLEBUILDING - MD OFFICE A  - STORY GROUND PSZ-AC MAIN BRANCH,ZONE OFFICE WHOLEBUILDING - MD OFFICE A  - STORY GROUND PSZ-AC,Air,ZONE OFFICE WHOLEBUILDING - MD OFFICE A  - STORY GROUND PSZ-AC SUPPLY INLET NODE,ZONE OFFICE WHOLEBUILDING - MD OFFICE A  - STORY GROUND PSZ-AC SUPPLY OUTLET NODE
 Branch List,2,ZONE OFFICE WHOLEBUILDING - MD OFFICE A END_A - STORY GROUND PSZ-AC SUPPLY BRANCHES,ZONE OFFICE WHOLEBUILDING - MD OFFICE A END_A - STORY GROUND PSZ-AC,Air,1
   Branch,1,ZONE OFFICE WHOLEBUILDING - MD OFFICE A END_A - STORY GROUND PSZ-AC MAIN BRANCH,ZONE OFFICE WHOLEBUILDING - MD OFFICE A END_A - STORY GROUND PSZ-AC,Air,ZONE OFFICE WHOLEBUILDING - MD OFFICE A END_A - STORY GROUND PSZ-AC SUPPLY INLET NODE,ZONE OFFICE WHOLEBUILDING - MD OFFICE A END_A - STORY GROUND PSZ-AC SUPPLY OUTLET NODE
 Branch List,3,ZONE OFFICE WHOLEBUILDING - MD OFFICE A END_B - STORY GROUND PSZ-AC SUPPLY BRANCHES,ZONE OFFICE WHOLEBUILDING - MD OFFICE A END_B - STORY GROUND PSZ-AC,Air,1
   Branch,1,ZONE OFFICE WHOLEBUILDING - MD OFFICE A END_B - STORY GROUND PSZ-AC MAIN BRANCH,ZONE OFFICE WHOLEBUILDING - MD OFFICE A END_B - STORY GROUND PSZ-AC,Air,ZONE OFFICE WHOLEBUILDING - MD OFFICE A END_B - STORY GROUND PSZ-AC SUPPLY INLET NODE,ZONE OFFICE WHOLEBUILDING - MD OFFICE A END_B - STORY GROUND PSZ-AC SUPPLY OUTLET NODE
 Branch List,4,ZONE OFFICE WHOLEBUILDING - MD OFFICE B  - STORY GROUND PSZ-AC SUPPLY BRANCHES,ZONE OFFICE WHOLEBUILDING - MD OFFICE B  - STORY GROUND PSZ-AC,Air,1
   Branch,1,ZONE OFFICE WHOLEBUILDING - MD OFFICE B  - STORY GROUND PSZ-AC MAIN BRANCH,ZONE OFFICE WHOLEBUILDING - MD OFFICE B  - STORY GROUND PSZ-AC,Air,ZONE OFFICE WHOLEBUILDING - MD OFFICE B  - STORY GROUND PSZ-AC SUPPLY INLET NODE,ZONE OFFICE WHOLEBUILDING - MD OFFICE B  - STORY GROUND PSZ-AC SUPPLY OUTLET NODE
 Branch List,5,ZONE OFFICE WHOLEBUILDING - MD OFFICE B END_A - STORY GROUND PSZ-AC SUPPLY BRANCHES,ZONE OFFICE WHOLEBUILDING - MD OFFICE B END_A - STORY GROUND PSZ-AC,Air,1
   Branch,1,ZONE OFFICE WHOLEBUILDING - MD OFFICE B END_A - STORY GROUND PSZ-AC MAIN BRANCH,ZONE OFFICE WHOLEBUILDING - MD OFFICE B END_A - STORY GROUND PSZ-AC,Air,ZONE OFFICE WHOLEBUILDING - MD OFFICE B END_A - STORY GROUND PSZ-AC SUPPLY INLET NODE,ZONE OFFICE WHOLEBUILDING - MD OFFICE B END_A - STORY GROUND PSZ-AC SUPPLY OUTLET NODE
 Branch List,6,ZONE OFFICE WHOLEBUILDING - MD OFFICE B END_B - STORY GROUND PSZ-AC SUPPLY BRANCHES,ZONE OFFICE WHOLEBUILDING - MD OFFICE B END_B - STORY GROUND PSZ-AC,Air,1
   Branch,1,ZONE OFFICE WHOLEBUILDING - MD OFFICE B END_B - STORY GROUND PSZ-AC MAIN BRANCH,ZONE OFFICE WHOLEBUILDING - MD OFFICE B END_B - STORY GROUND PSZ-AC,Air,ZONE OFFICE WHOLEBUILDING - MD OFFICE B END_B - STORY GROUND PSZ-AC SUPPLY INLET NODE,ZONE OFFICE WHOLEBUILDING - MD OFFICE B END_B - STORY GROUND PSZ-AC SUPPLY OUTLET NODE
 Branch List,7,ZONE OFFICE WHOLEBUILDING - MD OFFICE C  - STORY GROUND PSZ-AC SUPPLY BRANCHES,ZONE OFFICE WHOLEBUILDING - MD OFFICE C  - STORY GROUND PSZ-AC,Air,1
   Branch,1,ZONE OFFICE WHOLEBUILDING - MD OFFICE C  - STORY GROUND PSZ-AC MAIN BRANCH,ZONE OFFICE WHOLEBUILDING - MD OFFICE C  - STORY GROUND PSZ-AC,Air,ZONE OFFICE WHOLEBUILDING - MD OFFICE C  - STORY GROUND PSZ-AC SUPPLY INLET NODE,ZONE OFFICE WHOLEBUILDING - MD OFFICE C  - STORY GROUND PSZ-AC SUPPLY OUTLET NODE
 Branch List,8,ZONE OFFICE WHOLEBUILDING - MD OFFICE C END_A - STORY GROUND PSZ-AC SUPPLY BRANCHES,ZONE OFFICE WHOLEBUILDING - MD OFFICE C END_A - STORY GROUND PSZ-AC,Air,1
   Branch,1,ZONE OFFICE WHOLEBUILDING - MD OFFICE C END_A - STORY GROUND PSZ-AC MAIN BRANCH,ZONE OFFICE WHOLEBUILDING - MD OFFICE C END_A - STORY GROUND PSZ-AC,Air,ZONE OFFICE WHOLEBUILDING - MD OFFICE C END_A - STORY GROUND PSZ-AC SUPPLY INLET NODE,ZONE OFFICE WHOLEBUILDING - MD OFFICE C END_A - STORY GROUND PSZ-AC SUPPLY OUTLET NODE
 Branch List,9,ZONE OFFICE WHOLEBUILDING - MD OFFICE C END_B - STORY GROUND PSZ-AC SUPPLY BRANCHES,ZONE OFFICE WHOLEBUILDING - MD OFFICE C END_B - STORY GROUND PSZ-AC,Air,1
   Branch,1,ZONE OFFICE WHOLEBUILDING - MD OFFICE C END_B - STORY GROUND PSZ-AC MAIN BRANCH,ZONE OFFICE WHOLEBUILDING - MD OFFICE C END_B - STORY GROUND PSZ-AC,Air,ZONE OFFICE WHOLEBUILDING - MD OFFICE C END_B - STORY GROUND PSZ-AC SUPPLY INLET NODE,ZONE OFFICE WHOLEBUILDING - MD OFFICE C END_B - STORY GROUND PSZ-AC SUPPLY OUTLET NODE
 Branch List,10,HOT WATER LOOP SUPPLY BRANCHES,HOT WATER LOOP,Plant Supply,4
   Branch,1,HOT WATER LOOP SUPPLY INLET BRANCH,HOT WATER LOOP,Plant Supply,HOT WATER LOOP SUPPLY INLET NODE,HOT WATER LOOP PUMP OUTLET WATER NODE
   Branch,2,HOT WATER LOOP SUPPLY BRANCH 1,HOT WATER LOOP,Plant Supply,HOT WATER LOOP DISTRICT HEATING INLET WATER NODE,HOT WATER LOOP DISTRICT HEATING OUTLET WATER NODE
   Branch,3,HOT WATER LOOP SUPPLY BRANCH 2,HOT WATER LOOP,Plant Supply,HOT WATER LOOP SUPPLY EQUIPMENT BYPASS INLET WATER NODE,HOT WATER LOOP SUPPLY EQUIPMENT BYPASS OUTLET WATER NODE
   Branch,4,HOT WATER LOOP SUPPLY OUTLET BRANCH,HOT WATER LOOP,Plant Supply,HOT WATER LOOP SUPPLY OUTLET INLET WATER NODE,HOT WATER LOOP SUPPLY OUTLET NODE
 Branch List,11,HOT WATER LOOP DEMAND BRANCHES,HOT WATER LOOP,Plant Demand,13
   Branch,1,HOT WATER LOOP DEMAND INLET BRANCH,HOT WATER LOOP,Plant Demand,HOT WATER LOOP DEMAND INLET NODE,HOT WATER LOOP DEMAND INLET OUTLET WATER NODE
   Branch,2,HOT WATER LOOP DEMAND BRANCH 1,HOT WATER LOOP,Plant Demand,HOT WATER LOOP COIL BYPASS INLET WATER NODE,HOT WATER LOOP COIL BYPASS OUTLET WATER NODE
   Branch,3,HOT WATER LOOP DEMAND BRANCH 2,HOT WATER LOOP,Plant Demand,ZONE OFFICE WHOLEBUILDING - MD OFFICE A  - STORY GROUND PSZ-AC WATER HTG COIL INLET WATER NODE,ZONE OFFICE WHOLEBUILDING - MD OFFICE A  - STORY GROUND PSZ-AC WATER HTG COIL OUTLET WATER NODE
   Branch,4,HOT WATER LOOP DEMAND BRANCH 3,HOT WATER LOOP,Plant Demand,ZONE OFFICE WHOLEBUILDING - MD OFFICE A END_A - STORY GROUND PSZ-AC WATER HTG COIL INLET WATER NODE,ZONE OFFICE WHOLEBUILDING - MD OFFICE A END_A - STORY GROUND PSZ-AC WATER HTG COIL OUTLET WATER NODE
   Branch,5,HOT WATER LOOP DEMAND BRANCH 4,HOT WATER LOOP,Plant Demand,ZONE OFFICE WHOLEBUILDING - MD OFFICE A END_B - STORY GROUND PSZ-AC WATER HTG COIL INLET WATER NODE,ZONE OFFICE WHOLEBUILDING - MD OFFICE A END_B - STORY GROUND PSZ-AC WATER HTG COIL OUTLET WATER NODE
   Branch,6,HOT WATER LOOP DEMAND BRANCH 5,HOT WATER LOOP,Plant Demand,ZONE OFFICE WHOLEBUILDING - MD OFFICE B  - STORY GROUND PSZ-AC WATER HTG COIL INLET WATER NODE,ZONE OFFICE WHOLEBUILDING - MD OFFICE B  - STORY GROUND PSZ-AC WATER HTG COIL OUTLET WATER NODE
   Branch,7,HOT WATER LOOP DEMAND BRANCH 6,HOT WATER LOOP,Plant Demand,ZONE OFFICE WHOLEBUILDING - MD OFFICE B END_A - STORY GROUND PSZ-AC WATER HTG COIL INLET WATER NODE,ZONE OFFICE WHOLEBUILDING - MD OFFICE B END_A - STORY GROUND PSZ-AC WATER HTG COIL OUTLET WATER NODE
   Branch,8,HOT WATER LOOP DEMAND BRANCH 7,HOT WATER LOOP,Plant Demand,ZONE OFFICE WHOLEBUILDING - MD OFFICE B END_B - STORY GROUND PSZ-AC WATER HTG COIL INLET WATER NODE,ZONE OFFICE WHOLEBUILDING - MD OFFICE B END_B - STORY GROUND PSZ-AC WATER HTG COIL OUTLET WATER NODE
   Branch,9,HOT WATER LOOP DEMAND BRANCH 8,HOT WATER LOOP,Plant Demand,ZONE OFFICE WHOLEBUILDING - MD OFFICE C  - STORY GROUND PSZ-AC WATER HTG COIL INLET WATER NODE,ZONE OFFICE WHOLEBUILDING - MD OFFICE C  - STORY GROUND PSZ-AC WATER HTG COIL OUTLET WATER NODE
   Branch,10,HOT WATER LOOP DEMAND BRANCH 9,HOT WATER LOOP,Plant Demand,ZONE OFFICE WHOLEBUILDING - MD OFFICE C END_A - STORY GROUND PSZ-AC WATER HTG COIL INLET WATER NODE,ZONE OFFICE WHOLEBUILDING - MD OFFICE C END_A - STORY GROUND PSZ-AC WATER HTG COIL OUTLET WATER NODE
   Branch,11,HOT WATER LOOP DEMAND BRANCH 10,HOT WATER LOOP,Plant Demand,ZONE OFFICE WHOLEBUILDING - MD OFFICE C END_B - STORY GROUND PSZ-AC WATER HTG COIL INLET WATER NODE,ZONE OFFICE WHOLEBUILDING - MD OFFICE C END_B - STORY GROUND PSZ-AC WATER HTG COIL OUTLET WATER NODE
   Branch,12,HOT WATER LOOP DEMAND BYPASS BRANCH,HOT WATER LOOP,Plant Demand,HOT WATER LOOP DEMAND BYPASS PIPE INLET NODE,HOT WATER LOOP DEMAND BYPASS PIPE OUTLET NODE
   Branch,13,HOT WATER LOOP DEMAND OUTLET BRANCH,HOT WATER LOOP,Plant Demand,HOT WATER LOOP DEMAND OUTLET INLET WATER NODE,HOT WATER LOOP DEMAND OUTLET NODE
 Branch List,12,MAIN SERVICE WATER LOOP SUPPLY BRANCHES,MAIN SERVICE WATER LOOP,Plant Supply,4
   Branch,1,MAIN SERVICE WATER LOOP SUPPLY INLET BRANCH,MAIN SERVICE WATER LOOP,Plant Supply,MAIN SERVICE WATER LOOP SUPPLY INLET NODE,MAIN SERVICE WATER LOOP WATER MAINS PRESSURE DRIVEN OUTLET WATER NODE
   Branch,2,MAIN SERVICE WATER LOOP SUPPLY BRANCH 1,MAIN SERVICE WATER LOOP,Plant Supply,40GAL ELECTRICITY WATER HEATER - 40KBTU/HR 1.0 THERM EFF SUPPLY INLET WATER NODE,40GAL ELECTRICITY WATER HEATER - 40KBTU/HR 1.0 THERM EFF SUPPLY OUTLET WATER NODE
   Branch,3,MAIN SERVICE WATER LOOP SUPPLY BRANCH 2,MAIN SERVICE WATER LOOP,Plant Supply,PIPE ADIABATIC 1 INLET WATER NODE,PIPE ADIABATIC 1 OUTLET WATER NODE
   Branch,4,MAIN SERVICE WATER LOOP SUPPLY OUTLET BRANCH,MAIN SERVICE WATER LOOP,Plant Supply,PIPE ADIABATIC 3 INLET WATER NODE,MAIN SERVICE WATER LOOP SUPPLY OUTLET NODE
 Branch List,13,MAIN SERVICE WATER LOOP DEMAND BRANCHES,MAIN SERVICE WATER LOOP,Plant Demand,4
   Branch,1,MAIN SERVICE WATER LOOP DEMAND INLET BRANCH,MAIN SERVICE WATER LOOP,Plant Demand,MAIN SERVICE WATER LOOP DEMAND INLET NODE,MAIN SERVICE WATER LOOP DEMAND INLET PIPE NODE
   Branch,2,MAIN SERVICE WATER LOOP DEMAND BRANCH 1,MAIN SERVICE WATER LOOP,Plant Demand,PIPE ADIABATIC 2 INLET WATER NODE,PIPE ADIABATIC 2 OUTLET WATER NODE
   Branch,3,MAIN SERVICE WATER LOOP DEMAND BYPASS BRANCH,MAIN SERVICE WATER LOOP,Plant Demand,MAIN SERVICE WATER LOOP DEMAND BYPASS PIPE INLET NODE,MAIN SERVICE WATER LOOP DEMAND BYPASS PIPE OUTLET NODE
   Branch,4,MAIN SERVICE WATER LOOP DEMAND OUTLET BRANCH,MAIN SERVICE WATER LOOP,Plant Demand,PIPE ADIABATIC 4 INLET WATER NODE,MAIN SERVICE WATER LOOP DEMAND OUTLET NODE
 Branch List,14,OFFICE SHARED SERVICE WATER LOOP SUPPLY BRANCHES,OFFICE SHARED SERVICE WATER LOOP,Plant Supply,4
   Branch,1,OFFICE SHARED SERVICE WATER LOOP SUPPLY INLET BRANCH,OFFICE SHARED SERVICE WATER LOOP,Plant Supply,OFFICE SHARED SERVICE WATER LOOP SUPPLY INLET NODE,OFFICE SHARED SERVICE WATER LOOP CIRCULATOR PUMP OUTLET WATER NODE
   Branch,2,OFFICE SHARED SERVICE WATER LOOP SUPPLY BRANCH 1,OFFICE SHARED SERVICE WATER LOOP,Plant Supply,40GAL NATURALGAS WATER HEATER - 11KBTU/HR SUPPLY INLET WATER NODE,40GAL NATURALGAS WATER HEATER - 11KBTU/HR SUPPLY OUTLET WATER NODE
   Branch,3,OFFICE SHARED SERVICE WATER LOOP SUPPLY BRANCH 2,OFFICE SHARED SERVICE WATER LOOP,Plant Supply,PIPE ADIABATIC 5 INLET WATER NODE,PIPE ADIABATIC 5 OUTLET WATER NODE
   Branch,4,OFFICE SHARED SERVICE WATER LOOP SUPPLY OUTLET BRANCH,OFFICE SHARED SERVICE WATER LOOP,Plant Supply,PIPE ADIABATIC 7 INLET WATER NODE,OFFICE SHARED SERVICE WATER LOOP SUPPLY OUTLET NODE
 Branch List,15,OFFICE SHARED SERVICE WATER LOOP DEMAND BRANCHES,OFFICE SHARED SERVICE WATER LOOP,Plant Demand,5
   Branch,1,OFFICE SHARED SERVICE WATER LOOP DEMAND INLET BRANCH,OFFICE SHARED SERVICE WATER LOOP,Plant Demand,OFFICE SHARED SERVICE WATER LOOP DEMAND INLET NODE,OFFICE SHARED SERVICE WATER LOOP PIPE 280.9982206349351FT OUTLET WATER NODE
   Branch,2,OFFICE SHARED SERVICE WATER LOOP DEMAND BRANCH 1,OFFICE SHARED SERVICE WATER LOOP,Plant Demand,PIPE ADIABATIC 6 INLET WATER NODE,PIPE ADIABATIC 6 OUTLET WATER NODE
   Branch,3,OFFICE SHARED SERVICE WATER LOOP DEMAND BRANCH 2,OFFICE SHARED SERVICE WATER LOOP,Plant Demand,OFFICE WHOLEBUILDING - MD OFFICE - 90.1-2019 WUC 0.31GPM AT 140F INLET WATER NODE,OFFICE WHOLEBUILDING - MD OFFICE - 90.1-2019 WUC 0.31GPM AT 140F OUTLET WATER NODE
   Branch,4,OFFICE SHARED SERVICE WATER LOOP DEMAND BYPASS BRANCH,OFFICE SHARED SERVICE WATER LOOP,Plant Demand,OFFICE SHARED SERVICE WATER LOOP DEMAND BYPASS PIPE INLET NODE,OFFICE SHARED SERVICE WATER LOOP DEMAND BYPASS PIPE OUTLET NODE
   Branch,5,OFFICE SHARED SERVICE WATER LOOP DEMAND OUTLET BRANCH,OFFICE SHARED SERVICE WATER LOOP,Plant Demand,PIPE ADIABATIC 8 INLET WATER NODE,OFFICE SHARED SERVICE WATER LOOP DEMAND OUTLET NODE
! ===============================================================
! <#Supply Air Paths>,<Number of Supply Air Paths>
 #Supply Air Paths,9
! <Supply Air Path>,<Supply Air Path Count>,<Supply Air Path Name>,<AirLoopHVAC Name>
! <#Components on Supply Air Path>,<Number of Components>
! <Supply Air Path Component>,<Component Count>,<Component Type>,<Component Name>,<AirLoopHVAC Name>
! <#Outlet Nodes on Supply Air Path Component>,<Number of Nodes>
! <Supply Air Path Component Nodes>,<Node Count>,<Component Type>,<Component Name>,<Inlet Node Name>,<Outlet Node Name>,<AirLoopHVAC Name>
 Supply Air Path,1,ZONE OFFICE WHOLEBUILDING - MD OFFICE A  - STORY GROUND PSZ-AC ZONE OFFICE WHOLEBUILDING - MD OFFICE A  - STORY GROUND PSZ-AC DEMAND INLET NODE SUPPLY PATH,ZONE OFFICE WHOLEBUILDING - MD OFFICE A  - STORY GROUND PSZ-AC
   #Components on Supply Air Path,1
   Supply Air Path Component,1,AIRLOOPHVAC:ZONESPLITTER,AIR LOOP HVAC ZONE SPLITTER 1,ZONE OFFICE WHOLEBUILDING - MD OFFICE A  - STORY GROUND PSZ-AC
     #Outlet Nodes on Supply Air Path Component,1
     Supply Air Path Component Nodes,1,AIRLOOPHVAC:ZONESPLITTER,AIR LOOP HVAC ZONE SPLITTER 1,ZONE OFFICE WHOLEBUILDING - MD OFFICE A  - STORY GROUND PSZ-AC DEMAND INLET NODE,ZONE OFFICE WHOLEBUILDING - MD OFFICE A  - STORY GROUND PSZ-AC DIFFUSER INLET AIR NODE,ZONE OFFICE WHOLEBUILDING - MD OFFICE A  - STORY GROUND PSZ-AC
! <#Nodes on Supply Air Path>,<Number of Nodes>
! <Supply Air Path Node>,<Node Type>,<Node Count>,<Node Name>,<AirLoopHVAC Name>
#Nodes on Supply Air Path,2
   Supply Air Path Node,Inlet Node,1,ZONE OFFICE WHOLEBUILDING - MD OFFICE A  - STORY GROUND PSZ-AC DEMAND INLET NODE,ZONE OFFICE WHOLEBUILDING - MD OFFICE A  - STORY GROUND PSZ-AC
   Supply Air Path Node,Outlet Node,2,ZONE OFFICE WHOLEBUILDING - MD OFFICE A  - STORY GROUND PSZ-AC DIFFUSER INLET AIR NODE,ZONE OFFICE WHOLEBUILDING - MD OFFICE A  - STORY GROUND PSZ-AC
 Supply Air Path,2,ZONE OFFICE WHOLEBUILDING - MD OFFICE A END_A - STORY GROUND PSZ-AC ZONE OFFICE WHOLEBUILDING - MD OFFICE A END_A - STORY GROUND PSZ-AC DEMAND INLET NODE SUPPLY PATH,ZONE OFFICE WHOLEBUILDING - MD OFFICE A END_A - STORY GROUND PSZ-AC
   #Components on Supply Air Path,1
   Supply Air Path Component,1,AIRLOOPHVAC:ZONESPLITTER,AIR LOOP HVAC ZONE SPLITTER 2,ZONE OFFICE WHOLEBUILDING - MD OFFICE A END_A - STORY GROUND PSZ-AC
     #Outlet Nodes on Supply Air Path Component,1
     Supply Air Path Component Nodes,1,AIRLOOPHVAC:ZONESPLITTER,AIR LOOP HVAC ZONE SPLITTER 2,ZONE OFFICE WHOLEBUILDING - MD OFFICE A END_A - STORY GROUND PSZ-AC DEMAND INLET NODE,ZONE OFFICE WHOLEBUILDING - MD OFFICE A END_A - STORY GROUND PSZ-AC DIFFUSER INLET AIR NODE,ZONE OFFICE WHOLEBUILDING - MD OFFICE A END_A - STORY GROUND PSZ-AC
! <#Nodes on Supply Air Path>,<Number of Nodes>
! <Supply Air Path Node>,<Node Type>,<Node Count>,<Node Name>,<AirLoopHVAC Name>
#Nodes on Supply Air Path,2
   Supply Air Path Node,Inlet Node,1,ZONE OFFICE WHOLEBUILDING - MD OFFICE A END_A - STORY GROUND PSZ-AC DEMAND INLET NODE,ZONE OFFICE WHOLEBUILDING - MD OFFICE A END_A - STORY GROUND PSZ-AC
   Supply Air Path Node,Outlet Node,2,ZONE OFFICE WHOLEBUILDING - MD OFFICE A END_A - STORY GROUND PSZ-AC DIFFUSER INLET AIR NODE,ZONE OFFICE WHOLEBUILDING - MD OFFICE A END_A - STORY GROUND PSZ-AC
 Supply Air Path,3,ZONE OFFICE WHOLEBUILDING - MD OFFICE A END_B - STORY GROUND PSZ-AC ZONE OFFICE WHOLEBUILDING - MD OFFICE A END_B - STORY GROUND PSZ-AC DEMAND INLET NODE SUPPLY PATH,ZONE OFFICE WHOLEBUILDING - MD OFFICE A END_B - STORY GROUND PSZ-AC
   #Components on Supply Air Path,1
   Supply Air Path Component,1,AIRLOOPHVAC:ZONESPLITTER,AIR LOOP HVAC ZONE SPLITTER 3,ZONE OFFICE WHOLEBUILDING - MD OFFICE A END_B - STORY GROUND PSZ-AC
     #Outlet Nodes on Supply Air Path Component,1
     Supply Air Path Component Nodes,1,AIRLOOPHVAC:ZONESPLITTER,AIR LOOP HVAC ZONE SPLITTER 3,ZONE OFFICE WHOLEBUILDING - MD OFFICE A END_B - STORY GROUND PSZ-AC DEMAND INLET NODE,ZONE OFFICE WHOLEBUILDING - MD OFFICE A END_B - STORY GROUND PSZ-AC DIFFUSER INLET AIR NODE,ZONE OFFICE WHOLEBUILDING - MD OFFICE A END_B - STORY GROUND PSZ-AC
! <#Nodes on Supply Air Path>,<Number of Nodes>
! <Supply Air Path Node>,<Node Type>,<Node Count>,<Node Name>,<AirLoopHVAC Name>
#Nodes on Supply Air Path,2
   Supply Air Path Node,Inlet Node,1,ZONE OFFICE WHOLEBUILDING - MD OFFICE A END_B - STORY GROUND PSZ-AC DEMAND INLET NODE,ZONE OFFICE WHOLEBUILDING - MD OFFICE A END_B - STORY GROUND PSZ-AC
   Supply Air Path Node,Outlet Node,2,ZONE OFFICE WHOLEBUILDING - MD OFFICE A END_B - STORY GROUND PSZ-AC DIFFUSER INLET AIR NODE,ZONE OFFICE WHOLEBUILDING - MD OFFICE A END_B - STORY GROUND PSZ-AC
 Supply Air Path,4,ZONE OFFICE WHOLEBUILDING - MD OFFICE B  - STORY GROUND PSZ-AC ZONE OFFICE WHOLEBUILDING - MD OFFICE B  - STORY GROUND PSZ-AC DEMAND INLET NODE SUPPLY PATH,ZONE OFFICE WHOLEBUILDING - MD OFFICE B  - STORY GROUND PSZ-AC
   #Components on Supply Air Path,1
   Supply Air Path Component,1,AIRLOOPHVAC:ZONESPLITTER,AIR LOOP HVAC ZONE SPLITTER 4,ZONE OFFICE WHOLEBUILDING - MD OFFICE B  - STORY GROUND PSZ-AC
     #Outlet Nodes on Supply Air Path Component,1
     Supply Air Path Component Nodes,1,AIRLOOPHVAC:ZONESPLITTER,AIR LOOP HVAC ZONE SPLITTER 4,ZONE OFFICE WHOLEBUILDING - MD OFFICE B  - STORY GROUND PSZ-AC DEMAND INLET NODE,ZONE OFFICE WHOLEBUILDING - MD OFFICE B  - STORY GROUND PSZ-AC DIFFUSER INLET AIR NODE,ZONE OFFICE WHOLEBUILDING - MD OFFICE B  - STORY GROUND PSZ-AC
! <#Nodes on Supply Air Path>,<Number of Nodes>
! <Supply Air Path Node>,<Node Type>,<Node Count>,<Node Name>,<AirLoopHVAC Name>
#Nodes on Supply Air Path,2
   Supply Air Path Node,Inlet Node,1,ZONE OFFICE WHOLEBUILDING - MD OFFICE B  - STORY GROUND PSZ-AC DEMAND INLET NODE,ZONE OFFICE WHOLEBUILDING - MD OFFICE B  - STORY GROUND PSZ-AC
   Supply Air Path Node,Outlet Node,2,ZONE OFFICE WHOLEBUILDING - MD OFFICE B  - STORY GROUND PSZ-AC DIFFUSER INLET AIR NODE,ZONE OFFICE WHOLEBUILDING - MD OFFICE B  - STORY GROUND PSZ-AC
 Supply Air Path,5,ZONE OFFICE WHOLEBUILDING - MD OFFICE B END_A - STORY GROUND PSZ-AC ZONE OFFICE WHOLEBUILDING - MD OFFICE B END_A - STORY GROUND PSZ-AC DEMAND INLET NODE SUPPLY PATH,ZONE OFFICE WHOLEBUILDING - MD OFFICE B END_A - STORY GROUND PSZ-AC
   #Components on Supply Air Path,1
   Supply Air Path Component,1,AIRLOOPHVAC:ZONESPLITTER,AIR LOOP HVAC ZONE SPLITTER 5,ZONE OFFICE WHOLEBUILDING - MD OFFICE B END_A - STORY GROUND PSZ-AC
     #Outlet Nodes on Supply Air Path Component,1
     Supply Air Path Component Nodes,1,AIRLOOPHVAC:ZONESPLITTER,AIR LOOP HVAC ZONE SPLITTER 5,ZONE OFFICE WHOLEBUILDING - MD OFFICE B END_A - STORY GROUND PSZ-AC DEMAND INLET NODE,ZONE OFFICE WHOLEBUILDING - MD OFFICE B END_A - STORY GROUND PSZ-AC DIFFUSER INLET AIR NODE,ZONE OFFICE WHOLEBUILDING - MD OFFICE B END_A - STORY GROUND PSZ-AC
! <#Nodes on Supply Air Path>,<Number of Nodes>
! <Supply Air Path Node>,<Node Type>,<Node Count>,<Node Name>,<AirLoopHVAC Name>
#Nodes on Supply Air Path,2
   Supply Air Path Node,Inlet Node,1,ZONE OFFICE WHOLEBUILDING - MD OFFICE B END_A - STORY GROUND PSZ-AC DEMAND INLET NODE,ZONE OFFICE WHOLEBUILDING - MD OFFICE B END_A - STORY GROUND PSZ-AC
   Supply Air Path Node,Outlet Node,2,ZONE OFFICE WHOLEBUILDING - MD OFFICE B END_A - STORY GROUND PSZ-AC DIFFUSER INLET AIR NODE,ZONE OFFICE WHOLEBUILDING - MD OFFICE B END_A - STORY GROUND PSZ-AC
 Supply Air Path,6,ZONE OFFICE WHOLEBUILDING - MD OFFICE B END_B - STORY GROUND PSZ-AC ZONE OFFICE WHOLEBUILDING - MD OFFICE B END_B - STORY GROUND PSZ-AC DEMAND INLET NODE SUPPLY PATH,ZONE OFFICE WHOLEBUILDING - MD OFFICE B END_B - STORY GROUND PSZ-AC
   #Components on Supply Air Path,1
   Supply Air Path Component,1,AIRLOOPHVAC:ZONESPLITTER,AIR LOOP HVAC ZONE SPLITTER 6,ZONE OFFICE WHOLEBUILDING - MD OFFICE B END_B - STORY GROUND PSZ-AC
     #Outlet Nodes on Supply Air Path Component,1
     Supply Air Path Component Nodes,1,AIRLOOPHVAC:ZONESPLITTER,AIR LOOP HVAC ZONE SPLITTER 6,ZONE OFFICE WHOLEBUILDING - MD OFFICE B END_B - STORY GROUND PSZ-AC DEMAND INLET NODE,ZONE OFFICE WHOLEBUILDING - MD OFFICE B END_B - STORY GROUND PSZ-AC DIFFUSER INLET AIR NODE,ZONE OFFICE WHOLEBUILDING - MD OFFICE B END_B - STORY GROUND PSZ-AC
! <#Nodes on Supply Air Path>,<Number of Nodes>
! <Supply Air Path Node>,<Node Type>,<Node Count>,<Node Name>,<AirLoopHVAC Name>
#Nodes on Supply Air Path,2
   Supply Air Path Node,Inlet Node,1,ZONE OFFICE WHOLEBUILDING - MD OFFICE B END_B - STORY GROUND PSZ-AC DEMAND INLET NODE,ZONE OFFICE WHOLEBUILDING - MD OFFICE B END_B - STORY GROUND PSZ-AC
   Supply Air Path Node,Outlet Node,2,ZONE OFFICE WHOLEBUILDING - MD OFFICE B END_B - STORY GROUND PSZ-AC DIFFUSER INLET AIR NODE,ZONE OFFICE WHOLEBUILDING - MD OFFICE B END_B - STORY GROUND PSZ-AC
 Supply Air Path,7,ZONE OFFICE WHOLEBUILDING - MD OFFICE C  - STORY GROUND PSZ-AC ZONE OFFICE WHOLEBUILDING - MD OFFICE C  - STORY GROUND PSZ-AC DEMAND INLET NODE SUPPLY PATH,ZONE OFFICE WHOLEBUILDING - MD OFFICE C  - STORY GROUND PSZ-AC
   #Components on Supply Air Path,1
   Supply Air Path Component,1,AIRLOOPHVAC:ZONESPLITTER,AIR LOOP HVAC ZONE SPLITTER 7,ZONE OFFICE WHOLEBUILDING - MD OFFICE C  - STORY GROUND PSZ-AC
     #Outlet Nodes on Supply Air Path Component,1
     Supply Air Path Component Nodes,1,AIRLOOPHVAC:ZONESPLITTER,AIR LOOP HVAC ZONE SPLITTER 7,ZONE OFFICE WHOLEBUILDING - MD OFFICE C  - STORY GROUND PSZ-AC DEMAND INLET NODE,ZONE OFFICE WHOLEBUILDING - MD OFFICE C  - STORY GROUND PSZ-AC DIFFUSER INLET AIR NODE,ZONE OFFICE WHOLEBUILDING - MD OFFICE C  - STORY GROUND PSZ-AC
! <#Nodes on Supply Air Path>,<Number of Nodes>
! <Supply Air Path Node>,<Node Type>,<Node Count>,<Node Name>,<AirLoopHVAC Name>
#Nodes on Supply Air Path,2
   Supply Air Path Node,Inlet Node,1,ZONE OFFICE WHOLEBUILDING - MD OFFICE C  - STORY GROUND PSZ-AC DEMAND INLET NODE,ZONE OFFICE WHOLEBUILDING - MD OFFICE C  - STORY GROUND PSZ-AC
   Supply Air Path Node,Outlet Node,2,ZONE OFFICE WHOLEBUILDING - MD OFFICE C  - STORY GROUND PSZ-AC DIFFUSER INLET AIR NODE,ZONE OFFICE WHOLEBUILDING - MD OFFICE C  - STORY GROUND PSZ-AC
 Supply Air Path,8,ZONE OFFICE WHOLEBUILDING - MD OFFICE C END_A - STORY GROUND PSZ-AC ZONE OFFICE WHOLEBUILDING - MD OFFICE C END_A - STORY GROUND PSZ-AC DEMAND INLET NODE SUPPLY PATH,ZONE OFFICE WHOLEBUILDING - MD OFFICE C END_A - STORY GROUND PSZ-AC
   #Components on Supply Air Path,1
   Supply Air Path Component,1,AIRLOOPHVAC:ZONESPLITTER,AIR LOOP HVAC ZONE SPLITTER 8,ZONE OFFICE WHOLEBUILDING - MD OFFICE C END_A - STORY GROUND PSZ-AC
     #Outlet Nodes on Supply Air Path Component,1
     Supply Air Path Component Nodes,1,AIRLOOPHVAC:ZONESPLITTER,AIR LOOP HVAC ZONE SPLITTER 8,ZONE OFFICE WHOLEBUILDING - MD OFFICE C END_A - STORY GROUND PSZ-AC DEMAND INLET NODE,ZONE OFFICE WHOLEBUILDING - MD OFFICE C END_A - STORY GROUND PSZ-AC DIFFUSER INLET AIR NODE,ZONE OFFICE WHOLEBUILDING - MD OFFICE C END_A - STORY GROUND PSZ-AC
! <#Nodes on Supply Air Path>,<Number of Nodes>
! <Supply Air Path Node>,<Node Type>,<Node Count>,<Node Name>,<AirLoopHVAC Name>
#Nodes on Supply Air Path,2
   Supply Air Path Node,Inlet Node,1,ZONE OFFICE WHOLEBUILDING - MD OFFICE C END_A - STORY GROUND PSZ-AC DEMAND INLET NODE,ZONE OFFICE WHOLEBUILDING - MD OFFICE C END_A - STORY GROUND PSZ-AC
   Supply Air Path Node,Outlet Node,2,ZONE OFFICE WHOLEBUILDING - MD OFFICE C END_A - STORY GROUND PSZ-AC DIFFUSER INLET AIR NODE,ZONE OFFICE WHOLEBUILDING - MD OFFICE C END_A - STORY GROUND PSZ-AC
 Supply Air Path,9,ZONE OFFICE WHOLEBUILDING - MD OFFICE C END_B - STORY GROUND PSZ-AC ZONE OFFICE WHOLEBUILDING - MD OFFICE C END_B - STORY GROUND PSZ-AC DEMAND INLET NODE SUPPLY PATH,ZONE OFFICE WHOLEBUILDING - MD OFFICE C END_B - STORY GROUND PSZ-AC
   #Components on Supply Air Path,1
   Supply Air Path Component,1,AIRLOOPHVAC:ZONESPLITTER,AIR LOOP HVAC ZONE SPLITTER 9,ZONE OFFICE WHOLEBUILDING - MD OFFICE C END_B - STORY GROUND PSZ-AC
     #Outlet Nodes on Supply Air Path Component,1
     Supply Air Path Component Nodes,1,AIRLOOPHVAC:ZONESPLITTER,AIR LOOP HVAC ZONE SPLITTER 9,ZONE OFFICE WHOLEBUILDING - MD OFFICE C END_B - STORY GROUND PSZ-AC DEMAND INLET NODE,ZONE OFFICE WHOLEBUILDING - MD OFFICE C END_B - STORY GROUND PSZ-AC DIFFUSER INLET AIR NODE,ZONE OFFICE WHOLEBUILDING - MD OFFICE C END_B - STORY GROUND PSZ-AC
! <#Nodes on Supply Air Path>,<Number of Nodes>
! <Supply Air Path Node>,<Node Type>,<Node Count>,<Node Name>,<AirLoopHVAC Name>
#Nodes on Supply Air Path,2
   Supply Air Path Node,Inlet Node,1,ZONE OFFICE WHOLEBUILDING - MD OFFICE C END_B - STORY GROUND PSZ-AC DEMAND INLET NODE,ZONE OFFICE WHOLEBUILDING - MD OFFICE C END_B - STORY GROUND PSZ-AC
   Supply Air Path Node,Outlet Node,2,ZONE OFFICE WHOLEBUILDING - MD OFFICE C END_B - STORY GROUND PSZ-AC DIFFUSER INLET AIR NODE,ZONE OFFICE WHOLEBUILDING - MD OFFICE C END_B - STORY GROUND PSZ-AC
! ===============================================================
! <#Return Air Paths>,<Number of Return Air Paths>
 #Return Air Paths,9
! <Return Air Path>,<Return Air Path Count>,<Return Air Path Name>,<AirLoopHVAC Name>
! <#Components on Return Air Path>,<Number of Components>
! <Return Air Path Component>,<Component Count>,<Component Type>,<Component Name>,<AirLoopHVAC Name>
! <#Inlet Nodes on Return Air Path Component>,<Number of Nodes>
! <Return Air Path Component Nodes>,<Node Count>,<Component Type>,<Component Name>,<Inlet Node Name>,<Outlet Node Name>,<AirLoopHVAC Name>
 Return Air Path,1,ZONE OFFICE WHOLEBUILDING - MD OFFICE A  - STORY GROUND PSZ-AC RETURN PATH,ZONE OFFICE WHOLEBUILDING - MD OFFICE A  - STORY GROUND PSZ-AC
   #Components on Return Air Path,1
   Return Air Path Component,1,AIRLOOPHVAC:ZONEMIXER,AIR LOOP HVAC ZONE MIXER 1,ZONE OFFICE WHOLEBUILDING - MD OFFICE A  - STORY GROUND PSZ-AC
     #Inlet Nodes on Return Air Path Component,1
     Return Air Path Component Nodes,1,AIRLOOPHVAC:ZONEMIXER,AIR LOOP HVAC ZONE MIXER 1,ZONE OFFICE WHOLEBUILDING - MD OFFICE A  - STORY GROUND RETURN AIR NODE,ZONE OFFICE WHOLEBUILDING - MD OFFICE A  - STORY GROUND PSZ-AC DEMAND OUTLET NODE,ZONE OFFICE WHOLEBUILDING - MD OFFICE A  - STORY GROUND PSZ-AC
! <#Nodes on Return Air Path>,<Number of Nodes>
! <Return Air Path Node>,<Node Type>,<Node Count>,<Node Name>,<AirLoopHVAC Name>
   #Nodes on Return Air Path,2
   Return Air Path Node,Outlet Node,1,ZONE OFFICE WHOLEBUILDING - MD OFFICE A  - STORY GROUND PSZ-AC DEMAND OUTLET NODE,ZONE OFFICE WHOLEBUILDING - MD OFFICE A  - STORY GROUND PSZ-AC
   Return Air Path Node,Inlet Node,2,ZONE OFFICE WHOLEBUILDING - MD OFFICE A  - STORY GROUND RETURN AIR NODE,ZONE OFFICE WHOLEBUILDING - MD OFFICE A  - STORY GROUND PSZ-AC
 Return Air Path,2,ZONE OFFICE WHOLEBUILDING - MD OFFICE A END_A - STORY GROUND PSZ-AC RETURN PATH,ZONE OFFICE WHOLEBUILDING - MD OFFICE A END_A - STORY GROUND PSZ-AC
   #Components on Return Air Path,1
   Return Air Path Component,1,AIRLOOPHVAC:ZONEMIXER,AIR LOOP HVAC ZONE MIXER 2,ZONE OFFICE WHOLEBUILDING - MD OFFICE A END_A - STORY GROUND PSZ-AC
     #Inlet Nodes on Return Air Path Component,1
     Return Air Path Component Nodes,1,AIRLOOPHVAC:ZONEMIXER,AIR LOOP HVAC ZONE MIXER 2,ZONE OFFICE WHOLEBUILDING - MD OFFICE A END_A - STORY GROUND RETURN AIR NODE,ZONE OFFICE WHOLEBUILDING - MD OFFICE A END_A - STORY GROUND PSZ-AC DEMAND OUTLET NODE,ZONE OFFICE WHOLEBUILDING - MD OFFICE A END_A - STORY GROUND PSZ-AC
! <#Nodes on Return Air Path>,<Number of Nodes>
! <Return Air Path Node>,<Node Type>,<Node Count>,<Node Name>,<AirLoopHVAC Name>
   #Nodes on Return Air Path,2
   Return Air Path Node,Outlet Node,1,ZONE OFFICE WHOLEBUILDING - MD OFFICE A END_A - STORY GROUND PSZ-AC DEMAND OUTLET NODE,ZONE OFFICE WHOLEBUILDING - MD OFFICE A END_A - STORY GROUND PSZ-AC
   Return Air Path Node,Inlet Node,2,ZONE OFFICE WHOLEBUILDING - MD OFFICE A END_A - STORY GROUND RETURN AIR NODE,ZONE OFFICE WHOLEBUILDING - MD OFFICE A END_A - STORY GROUND PSZ-AC
 Return Air Path,3,ZONE OFFICE WHOLEBUILDING - MD OFFICE A END_B - STORY GROUND PSZ-AC RETURN PATH,ZONE OFFICE WHOLEBUILDING - MD OFFICE A END_B - STORY GROUND PSZ-AC
   #Components on Return Air Path,1
   Return Air Path Component,1,AIRLOOPHVAC:ZONEMIXER,AIR LOOP HVAC ZONE MIXER 3,ZONE OFFICE WHOLEBUILDING - MD OFFICE A END_B - STORY GROUND PSZ-AC
     #Inlet Nodes on Return Air Path Component,1
     Return Air Path Component Nodes,1,AIRLOOPHVAC:ZONEMIXER,AIR LOOP HVAC ZONE MIXER 3,ZONE OFFICE WHOLEBUILDING - MD OFFICE A END_B - STORY GROUND RETURN AIR NODE,ZONE OFFICE WHOLEBUILDING - MD OFFICE A END_B - STORY GROUND PSZ-AC DEMAND OUTLET NODE,ZONE OFFICE WHOLEBUILDING - MD OFFICE A END_B - STORY GROUND PSZ-AC
! <#Nodes on Return Air Path>,<Number of Nodes>
! <Return Air Path Node>,<Node Type>,<Node Count>,<Node Name>,<AirLoopHVAC Name>
   #Nodes on Return Air Path,2
   Return Air Path Node,Outlet Node,1,ZONE OFFICE WHOLEBUILDING - MD OFFICE A END_B - STORY GROUND PSZ-AC DEMAND OUTLET NODE,ZONE OFFICE WHOLEBUILDING - MD OFFICE A END_B - STORY GROUND PSZ-AC
   Return Air Path Node,Inlet Node,2,ZONE OFFICE WHOLEBUILDING - MD OFFICE A END_B - STORY GROUND RETURN AIR NODE,ZONE OFFICE WHOLEBUILDING - MD OFFICE A END_B - STORY GROUND PSZ-AC
 Return Air Path,4,ZONE OFFICE WHOLEBUILDING - MD OFFICE B  - STORY GROUND PSZ-AC RETURN PATH,ZONE OFFICE WHOLEBUILDING - MD OFFICE B  - STORY GROUND PSZ-AC
   #Components on Return Air Path,1
   Return Air Path Component,1,AIRLOOPHVAC:ZONEMIXER,AIR LOOP HVAC ZONE MIXER 4,ZONE OFFICE WHOLEBUILDING - MD OFFICE B  - STORY GROUND PSZ-AC
     #Inlet Nodes on Return Air Path Component,1
     Return Air Path Component Nodes,1,AIRLOOPHVAC:ZONEMIXER,AIR LOOP HVAC ZONE MIXER 4,ZONE OFFICE WHOLEBUILDING - MD OFFICE B  - STORY GROUND RETURN AIR NODE,ZONE OFFICE WHOLEBUILDING - MD OFFICE B  - STORY GROUND PSZ-AC DEMAND OUTLET NODE,ZONE OFFICE WHOLEBUILDING - MD OFFICE B  - STORY GROUND PSZ-AC
! <#Nodes on Return Air Path>,<Number of Nodes>
! <Return Air Path Node>,<Node Type>,<Node Count>,<Node Name>,<AirLoopHVAC Name>
   #Nodes on Return Air Path,2
   Return Air Path Node,Outlet Node,1,ZONE OFFICE WHOLEBUILDING - MD OFFICE B  - STORY GROUND PSZ-AC DEMAND OUTLET NODE,ZONE OFFICE WHOLEBUILDING - MD OFFICE B  - STORY GROUND PSZ-AC
   Return Air Path Node,Inlet Node,2,ZONE OFFICE WHOLEBUILDING - MD OFFICE B  - STORY GROUND RETURN AIR NODE,ZONE OFFICE WHOLEBUILDING - MD OFFICE B  - STORY GROUND PSZ-AC
 Return Air Path,5,ZONE OFFICE WHOLEBUILDING - MD OFFICE B END_A - STORY GROUND PSZ-AC RETURN PATH,ZONE OFFICE WHOLEBUILDING - MD OFFICE B END_A - STORY GROUND PSZ-AC
   #Components on Return Air Path,1
   Return Air Path Component,1,AIRLOOPHVAC:ZONEMIXER,AIR LOOP HVAC ZONE MIXER 5,ZONE OFFICE WHOLEBUILDING - MD OFFICE B END_A - STORY GROUND PSZ-AC
     #Inlet Nodes on Return Air Path Component,1
     Return Air Path Component Nodes,1,AIRLOOPHVAC:ZONEMIXER,AIR LOOP HVAC ZONE MIXER 5,ZONE OFFICE WHOLEBUILDING - MD OFFICE B END_A - STORY GROUND RETURN AIR NODE,ZONE OFFICE WHOLEBUILDING - MD OFFICE B END_A - STORY GROUND PSZ-AC DEMAND OUTLET NODE,ZONE OFFICE WHOLEBUILDING - MD OFFICE B END_A - STORY GROUND PSZ-AC
! <#Nodes on Return Air Path>,<Number of Nodes>
! <Return Air Path Node>,<Node Type>,<Node Count>,<Node Name>,<AirLoopHVAC Name>
   #Nodes on Return Air Path,2
   Return Air Path Node,Outlet Node,1,ZONE OFFICE WHOLEBUILDING - MD OFFICE B END_A - STORY GROUND PSZ-AC DEMAND OUTLET NODE,ZONE OFFICE WHOLEBUILDING - MD OFFICE B END_A - STORY GROUND PSZ-AC
   Return Air Path Node,Inlet Node,2,ZONE OFFICE WHOLEBUILDING - MD OFFICE B END_A - STORY GROUND RETURN AIR NODE,ZONE OFFICE WHOLEBUILDING - MD OFFICE B END_A - STORY GROUND PSZ-AC
 Return Air Path,6,ZONE OFFICE WHOLEBUILDING - MD OFFICE B END_B - STORY GROUND PSZ-AC RETURN PATH,ZONE OFFICE WHOLEBUILDING - MD OFFICE B END_B - STORY GROUND PSZ-AC
   #Components on Return Air Path,1
   Return Air Path Component,1,AIRLOOPHVAC:ZONEMIXER,AIR LOOP HVAC ZONE MIXER 6,ZONE OFFICE WHOLEBUILDING - MD OFFICE B END_B - STORY GROUND PSZ-AC
     #Inlet Nodes on Return Air Path Component,1
     Return Air Path Component Nodes,1,AIRLOOPHVAC:ZONEMIXER,AIR LOOP HVAC ZONE MIXER 6,ZONE OFFICE WHOLEBUILDING - MD OFFICE B END_B - STORY GROUND RETURN AIR NODE,ZONE OFFICE WHOLEBUILDING - MD OFFICE B END_B - STORY GROUND PSZ-AC DEMAND OUTLET NODE,ZONE OFFICE WHOLEBUILDING - MD OFFICE B END_B - STORY GROUND PSZ-AC
! <#Nodes on Return Air Path>,<Number of Nodes>
! <Return Air Path Node>,<Node Type>,<Node Count>,<Node Name>,<AirLoopHVAC Name>
   #Nodes on Return Air Path,2
   Return Air Path Node,Outlet Node,1,ZONE OFFICE WHOLEBUILDING - MD OFFICE B END_B - STORY GROUND PSZ-AC DEMAND OUTLET NODE,ZONE OFFICE WHOLEBUILDING - MD OFFICE B END_B - STORY GROUND PSZ-AC
   Return Air Path Node,Inlet Node,2,ZONE OFFICE WHOLEBUILDING - MD OFFICE B END_B - STORY GROUND RETURN AIR NODE,ZONE OFFICE WHOLEBUILDING - MD OFFICE B END_B - STORY GROUND PSZ-AC
 Return Air Path,7,ZONE OFFICE WHOLEBUILDING - MD OFFICE C  - STORY GROUND PSZ-AC RETURN PATH,ZONE OFFICE WHOLEBUILDING - MD OFFICE C  - STORY GROUND PSZ-AC
   #Components on Return Air Path,1
   Return Air Path Component,1,AIRLOOPHVAC:ZONEMIXER,AIR LOOP HVAC ZONE MIXER 7,ZONE OFFICE WHOLEBUILDING - MD OFFICE C  - STORY GROUND PSZ-AC
     #Inlet Nodes on Return Air Path Component,1
     Return Air Path Component Nodes,1,AIRLOOPHVAC:ZONEMIXER,AIR LOOP HVAC ZONE MIXER 7,ZONE OFFICE WHOLEBUILDING - MD OFFICE C  - STORY GROUND RETURN AIR NODE,ZONE OFFICE WHOLEBUILDING - MD OFFICE C  - STORY GROUND PSZ-AC DEMAND OUTLET NODE,ZONE OFFICE WHOLEBUILDING - MD OFFICE C  - STORY GROUND PSZ-AC
! <#Nodes on Return Air Path>,<Number of Nodes>
! <Return Air Path Node>,<Node Type>,<Node Count>,<Node Name>,<AirLoopHVAC Name>
   #Nodes on Return Air Path,2
   Return Air Path Node,Outlet Node,1,ZONE OFFICE WHOLEBUILDING - MD OFFICE C  - STORY GROUND PSZ-AC DEMAND OUTLET NODE,ZONE OFFICE WHOLEBUILDING - MD OFFICE C  - STORY GROUND PSZ-AC
   Return Air Path Node,Inlet Node,2,ZONE OFFICE WHOLEBUILDING - MD OFFICE C  - STORY GROUND RETURN AIR NODE,ZONE OFFICE WHOLEBUILDING - MD OFFICE C  - STORY GROUND PSZ-AC
 Return Air Path,8,ZONE OFFICE WHOLEBUILDING - MD OFFICE C END_A - STORY GROUND PSZ-AC RETURN PATH,ZONE OFFICE WHOLEBUILDING - MD OFFICE C END_A - STORY GROUND PSZ-AC
   #Components on Return Air Path,1
   Return Air Path Component,1,AIRLOOPHVAC:ZONEMIXER,AIR LOOP HVAC ZONE MIXER 8,ZONE OFFICE WHOLEBUILDING - MD OFFICE C END_A - STORY GROUND PSZ-AC
     #Inlet Nodes on Return Air Path Component,1
     Return Air Path Component Nodes,1,AIRLOOPHVAC:ZONEMIXER,AIR LOOP HVAC ZONE MIXER 8,ZONE OFFICE WHOLEBUILDING - MD OFFICE C END_A - STORY GROUND RETURN AIR NODE,ZONE OFFICE WHOLEBUILDING - MD OFFICE C END_A - STORY GROUND PSZ-AC DEMAND OUTLET NODE,ZONE OFFICE WHOLEBUILDING - MD OFFICE C END_A - STORY GROUND PSZ-AC
! <#Nodes on Return Air Path>,<Number of Nodes>
! <Return Air Path Node>,<Node Type>,<Node Count>,<Node Name>,<AirLoopHVAC Name>
   #Nodes on Return Air Path,2
   Return Air Path Node,Outlet Node,1,ZONE OFFICE WHOLEBUILDING - MD OFFICE C END_A - STORY GROUND PSZ-AC DEMAND OUTLET NODE,ZONE OFFICE WHOLEBUILDING - MD OFFICE C END_A - STORY GROUND PSZ-AC
   Return Air Path Node,Inlet Node,2,ZONE OFFICE WHOLEBUILDING - MD OFFICE C END_A - STORY GROUND RETURN AIR NODE,ZONE OFFICE WHOLEBUILDING - MD OFFICE C END_A - STORY GROUND PSZ-AC
 Return Air Path,9,ZONE OFFICE WHOLEBUILDING - MD OFFICE C END_B - STORY GROUND PSZ-AC RETURN PATH,ZONE OFFICE WHOLEBUILDING - MD OFFICE C END_B - STORY GROUND PSZ-AC
   #Components on Return Air Path,1
   Return Air Path Component,1,AIRLOOPHVAC:ZONEMIXER,AIR LOOP HVAC ZONE MIXER 9,ZONE OFFICE WHOLEBUILDING - MD OFFICE C END_B - STORY GROUND PSZ-AC
     #Inlet Nodes on Return Air Path Component,1
     Return Air Path Component Nodes,1,AIRLOOPHVAC:ZONEMIXER,AIR LOOP HVAC ZONE MIXER 9,ZONE OFFICE WHOLEBUILDING - MD OFFICE C END_B - STORY GROUND RETURN AIR NODE,ZONE OFFICE WHOLEBUILDING - MD OFFICE C END_B - STORY GROUND PSZ-AC DEMAND OUTLET NODE,ZONE OFFICE WHOLEBUILDING - MD OFFICE C END_B - STORY GROUND PSZ-AC
! <#Nodes on Return Air Path>,<Number of Nodes>
! <Return Air Path Node>,<Node Type>,<Node Count>,<Node Name>,<AirLoopHVAC Name>
   #Nodes on Return Air Path,2
   Return Air Path Node,Outlet Node,1,ZONE OFFICE WHOLEBUILDING - MD OFFICE C END_B - STORY GROUND PSZ-AC DEMAND OUTLET NODE,ZONE OFFICE WHOLEBUILDING - MD OFFICE C END_B - STORY GROUND PSZ-AC
   Return Air Path Node,Inlet Node,2,ZONE OFFICE WHOLEBUILDING - MD OFFICE C END_B - STORY GROUND RETURN AIR NODE,ZONE OFFICE WHOLEBUILDING - MD OFFICE C END_B - STORY GROUND PSZ-AC
! ===============================================================
! #Outdoor Air Nodes,<Number of Outdoor Air Nodes>
 #Outdoor Air Nodes,10
! <Outdoor Air Node>,<NodeNumber>,<Node Name>
 Outdoor Air Node,141,ZONE OFFICE WHOLEBUILDING - MD OFFICE A  - STORY GROUND PSZ-AC OUTDOOR AIR NODE
 Outdoor Air Node,142,ZONE OFFICE WHOLEBUILDING - MD OFFICE A END_A - STORY GROUND PSZ-AC OUTDOOR AIR NODE
 Outdoor Air Node,143,ZONE OFFICE WHOLEBUILDING - MD OFFICE A END_B - STORY GROUND PSZ-AC OUTDOOR AIR NODE
 Outdoor Air Node,144,ZONE OFFICE WHOLEBUILDING - MD OFFICE B  - STORY GROUND PSZ-AC OUTDOOR AIR NODE
 Outdoor Air Node,145,ZONE OFFICE WHOLEBUILDING - MD OFFICE B END_A - STORY GROUND PSZ-AC OUTDOOR AIR NODE
 Outdoor Air Node,146,ZONE OFFICE WHOLEBUILDING - MD OFFICE B END_B - STORY GROUND PSZ-AC OUTDOOR AIR NODE
 Outdoor Air Node,147,ZONE OFFICE WHOLEBUILDING - MD OFFICE C  - STORY GROUND PSZ-AC OUTDOOR AIR NODE
 Outdoor Air Node,148,ZONE OFFICE WHOLEBUILDING - MD OFFICE C END_A - STORY GROUND PSZ-AC OUTDOOR AIR NODE
 Outdoor Air Node,149,ZONE OFFICE WHOLEBUILDING - MD OFFICE C END_B - STORY GROUND PSZ-AC OUTDOOR AIR NODE
 Outdoor Air Node,150,MODEL OUTDOOR AIR NODE
! ===============================================================
! <#Component Sets>,<Number of Component Sets>
 #Component Sets,106
! <Component Set>,<Component Set Count>,<Parent Object Type>,<Parent Object Name>,<Component Type>,<Component Name>,<Inlet Node ID>,<Outlet Node ID>,<Description>
 Component Set,1,BRANCH,ZONE OFFICE WHOLEBUILDING - MD OFFICE A  - STORY GROUND PSZ-AC MAIN BRANCH,AIRLOOPHVAC:OUTDOORAIRSYSTEM,ZONE OFFICE WHOLEBUILDING - MD OFFICE A  - STORY GROUND PSZ-AC OA SYSTEM,ZONE OFFICE WHOLEBUILDING - MD OFFICE A  - STORY GROUND PSZ-AC SUPPLY INLET NODE,ZONE OFFICE WHOLEBUILDING - MD OFFICE A  - STORY GROUND PSZ-AC MIXED AIR NODE,Air Nodes
 Component Set,2,BRANCH,ZONE OFFICE WHOLEBUILDING - MD OFFICE A  - STORY GROUND PSZ-AC MAIN BRANCH,AIRLOOPHVAC:UNITARYSYSTEM,ZONE OFFICE WHOLEBUILDING - MD OFFICE A  - STORY GROUND PSZ-AC UNITARY AC,ZONE OFFICE WHOLEBUILDING - MD OFFICE A  - STORY GROUND PSZ-AC MIXED AIR NODE,ZONE OFFICE WHOLEBUILDING - MD OFFICE A  - STORY GROUND PSZ-AC SUPPLY OUTLET NODE,Air Nodes
 Component Set,3,BRANCH,ZONE OFFICE WHOLEBUILDING - MD OFFICE A END_A - STORY GROUND PSZ-AC MAIN BRANCH,AIRLOOPHVAC:OUTDOORAIRSYSTEM,ZONE OFFICE WHOLEBUILDING - MD OFFICE A END_A - STORY GROUND PSZ-AC OA SYSTEM,ZONE OFFICE WHOLEBUILDING - MD OFFICE A END_A - STORY GROUND PSZ-AC SUPPLY INLET NODE,ZONE OFFICE WHOLEBUILDING - MD OFFICE A END_A - STORY GROUND PSZ-AC MIXED AIR NODE,Air Nodes
 Component Set,4,BRANCH,ZONE OFFICE WHOLEBUILDING - MD OFFICE A END_A - STORY GROUND PSZ-AC MAIN BRANCH,AIRLOOPHVAC:UNITARYSYSTEM,ZONE OFFICE WHOLEBUILDING - MD OFFICE A END_A - STORY GROUND PSZ-AC UNITARY AC,ZONE OFFICE WHOLEBUILDING - MD OFFICE A END_A - STORY GROUND PSZ-AC MIXED AIR NODE,ZONE OFFICE WHOLEBUILDING - MD OFFICE A END_A - STORY GROUND PSZ-AC SUPPLY OUTLET NODE,Air Nodes
 Component Set,5,BRANCH,ZONE OFFICE WHOLEBUILDING - MD OFFICE A END_B - STORY GROUND PSZ-AC MAIN BRANCH,AIRLOOPHVAC:OUTDOORAIRSYSTEM,ZONE OFFICE WHOLEBUILDING - MD OFFICE A END_B - STORY GROUND PSZ-AC OA SYSTEM,ZONE OFFICE WHOLEBUILDING - MD OFFICE A END_B - STORY GROUND PSZ-AC SUPPLY INLET NODE,ZONE OFFICE WHOLEBUILDING - MD OFFICE A END_B - STORY GROUND PSZ-AC MIXED AIR NODE,Air Nodes
 Component Set,6,BRANCH,ZONE OFFICE WHOLEBUILDING - MD OFFICE A END_B - STORY GROUND PSZ-AC MAIN BRANCH,AIRLOOPHVAC:UNITARYSYSTEM,ZONE OFFICE WHOLEBUILDING - MD OFFICE A END_B - STORY GROUND PSZ-AC UNITARY AC,ZONE OFFICE WHOLEBUILDING - MD OFFICE A END_B - STORY GROUND PSZ-AC MIXED AIR NODE,ZONE OFFICE WHOLEBUILDING - MD OFFICE A END_B - STORY GROUND PSZ-AC SUPPLY OUTLET NODE,Air Nodes
 Component Set,7,BRANCH,ZONE OFFICE WHOLEBUILDING - MD OFFICE B  - STORY GROUND PSZ-AC MAIN BRANCH,AIRLOOPHVAC:OUTDOORAIRSYSTEM,ZONE OFFICE WHOLEBUILDING - MD OFFICE B  - STORY GROUND PSZ-AC OA SYSTEM,ZONE OFFICE WHOLEBUILDING - MD OFFICE B  - STORY GROUND PSZ-AC SUPPLY INLET NODE,ZONE OFFICE WHOLEBUILDING - MD OFFICE B  - STORY GROUND PSZ-AC MIXED AIR NODE,Air Nodes
 Component Set,8,BRANCH,ZONE OFFICE WHOLEBUILDING - MD OFFICE B  - STORY GROUND PSZ-AC MAIN BRANCH,AIRLOOPHVAC:UNITARYSYSTEM,ZONE OFFICE WHOLEBUILDING - MD OFFICE B  - STORY GROUND PSZ-AC UNITARY AC,ZONE OFFICE WHOLEBUILDING - MD OFFICE B  - STORY GROUND PSZ-AC MIXED AIR NODE,ZONE OFFICE WHOLEBUILDING - MD OFFICE B  - STORY GROUND PSZ-AC SUPPLY OUTLET NODE,Air Nodes
 Component Set,9,BRANCH,ZONE OFFICE WHOLEBUILDING - MD OFFICE B END_A - STORY GROUND PSZ-AC MAIN BRANCH,AIRLOOPHVAC:OUTDOORAIRSYSTEM,ZONE OFFICE WHOLEBUILDING - MD OFFICE B END_A - STORY GROUND PSZ-AC OA SYSTEM,ZONE OFFICE WHOLEBUILDING - MD OFFICE B END_A - STORY GROUND PSZ-AC SUPPLY INLET NODE,ZONE OFFICE WHOLEBUILDING - MD OFFICE B END_A - STORY GROUND PSZ-AC MIXED AIR NODE,Air Nodes
 Component Set,10,BRANCH,ZONE OFFICE WHOLEBUILDING - MD OFFICE B END_A - STORY GROUND PSZ-AC MAIN BRANCH,AIRLOOPHVAC:UNITARYSYSTEM,ZONE OFFICE WHOLEBUILDING - MD OFFICE B END_A - STORY GROUND PSZ-AC UNITARY AC,ZONE OFFICE WHOLEBUILDING - MD OFFICE B END_A - STORY GROUND PSZ-AC MIXED AIR NODE,ZONE OFFICE WHOLEBUILDING - MD OFFICE B END_A - STORY GROUND PSZ-AC SUPPLY OUTLET NODE,Air Nodes
 Component Set,11,BRANCH,ZONE OFFICE WHOLEBUILDING - MD OFFICE B END_B - STORY GROUND PSZ-AC MAIN BRANCH,AIRLOOPHVAC:OUTDOORAIRSYSTEM,ZONE OFFICE WHOLEBUILDING - MD OFFICE B END_B - STORY GROUND PSZ-AC OA SYSTEM,ZONE OFFICE WHOLEBUILDING - MD OFFICE B END_B - STORY GROUND PSZ-AC SUPPLY INLET NODE,ZONE OFFICE WHOLEBUILDING - MD OFFICE B END_B - STORY GROUND PSZ-AC MIXED AIR NODE,Air Nodes
 Component Set,12,BRANCH,ZONE OFFICE WHOLEBUILDING - MD OFFICE B END_B - STORY GROUND PSZ-AC MAIN BRANCH,AIRLOOPHVAC:UNITARYSYSTEM,ZONE OFFICE WHOLEBUILDING - MD OFFICE B END_B - STORY GROUND PSZ-AC UNITARY AC,ZONE OFFICE WHOLEBUILDING - MD OFFICE B END_B - STORY GROUND PSZ-AC MIXED AIR NODE,ZONE OFFICE WHOLEBUILDING - MD OFFICE B END_B - STORY GROUND PSZ-AC SUPPLY OUTLET NODE,Air Nodes
 Component Set,13,BRANCH,ZONE OFFICE WHOLEBUILDING - MD OFFICE C  - STORY GROUND PSZ-AC MAIN BRANCH,AIRLOOPHVAC:OUTDOORAIRSYSTEM,ZONE OFFICE WHOLEBUILDING - MD OFFICE C  - STORY GROUND PSZ-AC OA SYSTEM,ZONE OFFICE WHOLEBUILDING - MD OFFICE C  - STORY GROUND PSZ-AC SUPPLY INLET NODE,ZONE OFFICE WHOLEBUILDING - MD OFFICE C  - STORY GROUND PSZ-AC MIXED AIR NODE,Air Nodes
 Component Set,14,BRANCH,ZONE OFFICE WHOLEBUILDING - MD OFFICE C  - STORY GROUND PSZ-AC MAIN BRANCH,AIRLOOPHVAC:UNITARYSYSTEM,ZONE OFFICE WHOLEBUILDING - MD OFFICE C  - STORY GROUND PSZ-AC UNITARY AC,ZONE OFFICE WHOLEBUILDING - MD OFFICE C  - STORY GROUND PSZ-AC MIXED AIR NODE,ZONE OFFICE WHOLEBUILDING - MD OFFICE C  - STORY GROUND PSZ-AC SUPPLY OUTLET NODE,Air Nodes
 Component Set,15,BRANCH,ZONE OFFICE WHOLEBUILDING - MD OFFICE C END_A - STORY GROUND PSZ-AC MAIN BRANCH,AIRLOOPHVAC:OUTDOORAIRSYSTEM,ZONE OFFICE WHOLEBUILDING - MD OFFICE C END_A - STORY GROUND PSZ-AC OA SYSTEM,ZONE OFFICE WHOLEBUILDING - MD OFFICE C END_A - STORY GROUND PSZ-AC SUPPLY INLET NODE,ZONE OFFICE WHOLEBUILDING - MD OFFICE C END_A - STORY GROUND PSZ-AC MIXED AIR NODE,Air Nodes
 Component Set,16,BRANCH,ZONE OFFICE WHOLEBUILDING - MD OFFICE C END_A - STORY GROUND PSZ-AC MAIN BRANCH,AIRLOOPHVAC:UNITARYSYSTEM,ZONE OFFICE WHOLEBUILDING - MD OFFICE C END_A - STORY GROUND PSZ-AC UNITARY AC,ZONE OFFICE WHOLEBUILDING - MD OFFICE C END_A - STORY GROUND PSZ-AC MIXED AIR NODE,ZONE OFFICE WHOLEBUILDING - MD OFFICE C END_A - STORY GROUND PSZ-AC SUPPLY OUTLET NODE,Air Nodes
 Component Set,17,BRANCH,ZONE OFFICE WHOLEBUILDING - MD OFFICE C END_B - STORY GROUND PSZ-AC MAIN BRANCH,AIRLOOPHVAC:OUTDOORAIRSYSTEM,ZONE OFFICE WHOLEBUILDING - MD OFFICE C END_B - STORY GROUND PSZ-AC OA SYSTEM,ZONE OFFICE WHOLEBUILDING - MD OFFICE C END_B - STORY GROUND PSZ-AC SUPPLY INLET NODE,ZONE OFFICE WHOLEBUILDING - MD OFFICE C END_B - STORY GROUND PSZ-AC MIXED AIR NODE,Air Nodes
 Component Set,18,BRANCH,ZONE OFFICE WHOLEBUILDING - MD OFFICE C END_B - STORY GROUND PSZ-AC MAIN BRANCH,AIRLOOPHVAC:UNITARYSYSTEM,ZONE OFFICE WHOLEBUILDING - MD OFFICE C END_B - STORY GROUND PSZ-AC UNITARY AC,ZONE OFFICE WHOLEBUILDING - MD OFFICE C END_B - STORY GROUND PSZ-AC MIXED AIR NODE,ZONE OFFICE WHOLEBUILDING - MD OFFICE C END_B - STORY GROUND PSZ-AC SUPPLY OUTLET NODE,Air Nodes
 Component Set,19,BRANCH,HOT WATER LOOP SUPPLY INLET BRANCH,PUMP:VARIABLESPEED,HOT WATER LOOP PUMP,HOT WATER LOOP SUPPLY INLET NODE,HOT WATER LOOP PUMP OUTLET WATER NODE,Water Nodes
 Component Set,20,BRANCH,HOT WATER LOOP SUPPLY BRANCH 1,DISTRICTHEATING,HOT WATER LOOP DISTRICT HEATING,HOT WATER LOOP DISTRICT HEATING INLET WATER NODE,HOT WATER LOOP DISTRICT HEATING OUTLET WATER NODE,Hot Water Nodes
 Component Set,21,BRANCH,HOT WATER LOOP SUPPLY BRANCH 2,PIPE:ADIABATIC,HOT WATER LOOP SUPPLY EQUIPMENT BYPASS,HOT WATER LOOP SUPPLY EQUIPMENT BYPASS INLET WATER NODE,HOT WATER LOOP SUPPLY EQUIPMENT BYPASS OUTLET WATER NODE,Pipe Nodes
 Component Set,22,BRANCH,HOT WATER LOOP SUPPLY OUTLET BRANCH,PIPE:ADIABATIC,HOT WATER LOOP SUPPLY OUTLET,HOT WATER LOOP SUPPLY OUTLET INLET WATER NODE,HOT WATER LOOP SUPPLY OUTLET NODE,Pipe Nodes
 Component Set,23,BRANCH,HOT WATER LOOP DEMAND INLET BRANCH,PIPE:ADIABATIC,HOT WATER LOOP DEMAND INLET,HOT WATER LOOP DEMAND INLET NODE,HOT WATER LOOP DEMAND INLET OUTLET WATER NODE,Pipe Nodes
 Component Set,24,BRANCH,HOT WATER LOOP DEMAND BRANCH 1,PIPE:ADIABATIC,HOT WATER LOOP COIL BYPASS,HOT WATER LOOP COIL BYPASS INLET WATER NODE,HOT WATER LOOP COIL BYPASS OUTLET WATER NODE,Pipe Nodes
 Component Set,25,BRANCH,HOT WATER LOOP DEMAND BRANCH 2,COIL:HEATING:WATER,ZONE OFFICE WHOLEBUILDING - MD OFFICE A  - STORY GROUND PSZ-AC WATER HTG COIL,ZONE OFFICE WHOLEBUILDING - MD OFFICE A  - STORY GROUND PSZ-AC WATER HTG COIL INLET WATER NODE,ZONE OFFICE WHOLEBUILDING - MD OFFICE A  - STORY GROUND PSZ-AC WATER HTG COIL OUTLET WATER NODE,Water Nodes
 Component Set,26,BRANCH,HOT WATER LOOP DEMAND BRANCH 3,COIL:HEATING:WATER,ZONE OFFICE WHOLEBUILDING - MD OFFICE A END_A - STORY GROUND PSZ-AC WATER HTG COIL,ZONE OFFICE WHOLEBUILDING - MD OFFICE A END_A - STORY GROUND PSZ-AC WATER HTG COIL INLET WATER NODE,ZONE OFFICE WHOLEBUILDING - MD OFFICE A END_A - STORY GROUND PSZ-AC WATER HTG COIL OUTLET WATER NODE,Water Nodes
 Component Set,27,BRANCH,HOT WATER LOOP DEMAND BRANCH 4,COIL:HEATING:WATER,ZONE OFFICE WHOLEBUILDING - MD OFFICE A END_B - STORY GROUND PSZ-AC WATER HTG COIL,ZONE OFFICE WHOLEBUILDING - MD OFFICE A END_B - STORY GROUND PSZ-AC WATER HTG COIL INLET WATER NODE,ZONE OFFICE WHOLEBUILDING - MD OFFICE A END_B - STORY GROUND PSZ-AC WATER HTG COIL OUTLET WATER NODE,Water Nodes
 Component Set,28,BRANCH,HOT WATER LOOP DEMAND BRANCH 5,COIL:HEATING:WATER,ZONE OFFICE WHOLEBUILDING - MD OFFICE B  - STORY GROUND PSZ-AC WATER HTG COIL,ZONE OFFICE WHOLEBUILDING - MD OFFICE B  - STORY GROUND PSZ-AC WATER HTG COIL INLET WATER NODE,ZONE OFFICE WHOLEBUILDING - MD OFFICE B  - STORY GROUND PSZ-AC WATER HTG COIL OUTLET WATER NODE,Water Nodes
 Component Set,29,BRANCH,HOT WATER LOOP DEMAND BRANCH 6,COIL:HEATING:WATER,ZONE OFFICE WHOLEBUILDING - MD OFFICE B END_A - STORY GROUND PSZ-AC WATER HTG COIL,ZONE OFFICE WHOLEBUILDING - MD OFFICE B END_A - STORY GROUND PSZ-AC WATER HTG COIL INLET WATER NODE,ZONE OFFICE WHOLEBUILDING - MD OFFICE B END_A - STORY GROUND PSZ-AC WATER HTG COIL OUTLET WATER NODE,Water Nodes
 Component Set,30,BRANCH,HOT WATER LOOP DEMAND BRANCH 7,COIL:HEATING:WATER,ZONE OFFICE WHOLEBUILDING - MD OFFICE B END_B - STORY GROUND PSZ-AC WATER HTG COIL,ZONE OFFICE WHOLEBUILDING - MD OFFICE B END_B - STORY GROUND PSZ-AC WATER HTG COIL INLET WATER NODE,ZONE OFFICE WHOLEBUILDING - MD OFFICE B END_B - STORY GROUND PSZ-AC WATER HTG COIL OUTLET WATER NODE,Water Nodes
 Component Set,31,BRANCH,HOT WATER LOOP DEMAND BRANCH 8,COIL:HEATING:WATER,ZONE OFFICE WHOLEBUILDING - MD OFFICE C  - STORY GROUND PSZ-AC WATER HTG COIL,ZONE OFFICE WHOLEBUILDING - MD OFFICE C  - STORY GROUND PSZ-AC WATER HTG COIL INLET WATER NODE,ZONE OFFICE WHOLEBUILDING - MD OFFICE C  - STORY GROUND PSZ-AC WATER HTG COIL OUTLET WATER NODE,Water Nodes
 Component Set,32,BRANCH,HOT WATER LOOP DEMAND BRANCH 9,COIL:HEATING:WATER,ZONE OFFICE WHOLEBUILDING - MD OFFICE C END_A - STORY GROUND PSZ-AC WATER HTG COIL,ZONE OFFICE WHOLEBUILDING - MD OFFICE C END_A - STORY GROUND PSZ-AC WATER HTG COIL INLET WATER NODE,ZONE OFFICE WHOLEBUILDING - MD OFFICE C END_A - STORY GROUND PSZ-AC WATER HTG COIL OUTLET WATER NODE,Water Nodes
 Component Set,33,BRANCH,HOT WATER LOOP DEMAND BRANCH 10,COIL:HEATING:WATER,ZONE OFFICE WHOLEBUILDING - MD OFFICE C END_B - STORY GROUND PSZ-AC WATER HTG COIL,ZONE OFFICE WHOLEBUILDING - MD OFFICE C END_B - STORY GROUND PSZ-AC WATER HTG COIL INLET WATER NODE,ZONE OFFICE WHOLEBUILDING - MD OFFICE C END_B - STORY GROUND PSZ-AC WATER HTG COIL OUTLET WATER NODE,Water Nodes
 Component Set,34,BRANCH,HOT WATER LOOP DEMAND BYPASS BRANCH,PIPE:ADIABATIC,HOT WATER LOOP DEMAND BYPASS PIPE,HOT WATER LOOP DEMAND BYPASS PIPE INLET NODE,HOT WATER LOOP DEMAND BYPASS PIPE OUTLET NODE,Pipe Nodes
 Component Set,35,BRANCH,HOT WATER LOOP DEMAND OUTLET BRANCH,PIPE:ADIABATIC,HOT WATER LOOP DEMAND OUTLET,HOT WATER LOOP DEMAND OUTLET INLET WATER NODE,HOT WATER LOOP DEMAND OUTLET NODE,Pipe Nodes
 Component Set,36,BRANCH,MAIN SERVICE WATER LOOP SUPPLY INLET BRANCH,PUMP:VARIABLESPEED,MAIN SERVICE WATER LOOP WATER MAINS PRESSURE DRIVEN,MAIN SERVICE WATER LOOP SUPPLY INLET NODE,MAIN SERVICE WATER LOOP WATER MAINS PRESSURE DRIVEN OUTLET WATER NODE,Water Nodes
 Component Set,37,BRANCH,MAIN SERVICE WATER LOOP SUPPLY BRANCH 1,WATERHEATER:MIXED,40GAL ELECTRICITY WATER HEATER - 40KBTU/HR 1.0 THERM EFF,40GAL ELECTRICITY WATER HEATER - 40KBTU/HR 1.0 THERM EFF SUPPLY INLET WATER NODE,40GAL ELECTRICITY WATER HEATER - 40KBTU/HR 1.0 THERM EFF SUPPLY OUTLET WATER NODE,Use Side Water Nodes
 Component Set,38,BRANCH,MAIN SERVICE WATER LOOP SUPPLY BRANCH 2,PIPE:ADIABATIC,PIPE ADIABATIC 1,PIPE ADIABATIC 1 INLET WATER NODE,PIPE ADIABATIC 1 OUTLET WATER NODE,Pipe Nodes
 Component Set,39,BRANCH,MAIN SERVICE WATER LOOP SUPPLY OUTLET BRANCH,PIPE:ADIABATIC,PIPE ADIABATIC 3,PIPE ADIABATIC 3 INLET WATER NODE,MAIN SERVICE WATER LOOP SUPPLY OUTLET NODE,Pipe Nodes
 Component Set,40,BRANCH,MAIN SERVICE WATER LOOP DEMAND INLET BRANCH,PIPE:ADIABATIC,MAIN SERVICE WATER LOOP DEMAND INLET PIPE,MAIN SERVICE WATER LOOP DEMAND INLET NODE,MAIN SERVICE WATER LOOP DEMAND INLET PIPE NODE,Pipe Nodes
 Component Set,41,BRANCH,MAIN SERVICE WATER LOOP DEMAND BRANCH 1,PIPE:ADIABATIC,PIPE ADIABATIC 2,PIPE ADIABATIC 2 INLET WATER NODE,PIPE ADIABATIC 2 OUTLET WATER NODE,Pipe Nodes
 Component Set,42,BRANCH,MAIN SERVICE WATER LOOP DEMAND BYPASS BRANCH,PIPE:ADIABATIC,MAIN SERVICE WATER LOOP DEMAND BYPASS PIPE,MAIN SERVICE WATER LOOP DEMAND BYPASS PIPE INLET NODE,MAIN SERVICE WATER LOOP DEMAND BYPASS PIPE OUTLET NODE,Pipe Nodes
 Component Set,43,BRANCH,MAIN SERVICE WATER LOOP DEMAND OUTLET BRANCH,PIPE:ADIABATIC,PIPE ADIABATIC 4,PIPE ADIABATIC 4 INLET WATER NODE,MAIN SERVICE WATER LOOP DEMAND OUTLET NODE,Pipe Nodes
 Component Set,44,BRANCH,OFFICE SHARED SERVICE WATER LOOP SUPPLY INLET BRANCH,PUMP:CONSTANTSPEED,OFFICE SHARED SERVICE WATER LOOP CIRCULATOR PUMP,OFFICE SHARED SERVICE WATER LOOP SUPPLY INLET NODE,OFFICE SHARED SERVICE WATER LOOP CIRCULATOR PUMP OUTLET WATER NODE,Water Nodes
 Component Set,45,BRANCH,OFFICE SHARED SERVICE WATER LOOP SUPPLY BRANCH 1,WATERHEATER:MIXED,40GAL NATURALGAS WATER HEATER - 11KBTU/HR,40GAL NATURALGAS WATER HEATER - 11KBTU/HR SUPPLY INLET WATER NODE,40GAL NATURALGAS WATER HEATER - 11KBTU/HR SUPPLY OUTLET WATER NODE,Use Side Water Nodes
 Component Set,46,BRANCH,OFFICE SHARED SERVICE WATER LOOP SUPPLY BRANCH 2,PIPE:ADIABATIC,PIPE ADIABATIC 5,PIPE ADIABATIC 5 INLET WATER NODE,PIPE ADIABATIC 5 OUTLET WATER NODE,Pipe Nodes
 Component Set,47,BRANCH,OFFICE SHARED SERVICE WATER LOOP SUPPLY OUTLET BRANCH,PIPE:ADIABATIC,PIPE ADIABATIC 7,PIPE ADIABATIC 7 INLET WATER NODE,OFFICE SHARED SERVICE WATER LOOP SUPPLY OUTLET NODE,Pipe Nodes
 Component Set,48,BRANCH,OFFICE SHARED SERVICE WATER LOOP DEMAND INLET BRANCH,PIPE:INDOOR,OFFICE SHARED SERVICE WATER LOOP PIPE 280.9982206349351FT,OFFICE SHARED SERVICE WATER LOOP DEMAND INLET NODE,OFFICE SHARED SERVICE WATER LOOP PIPE 280.9982206349351FT OUTLET WATER NODE,Pipe Nodes
 Component Set,49,BRANCH,OFFICE SHARED SERVICE WATER LOOP DEMAND BRANCH 1,PIPE:ADIABATIC,PIPE ADIABATIC 6,PIPE ADIABATIC 6 INLET WATER NODE,PIPE ADIABATIC 6 OUTLET WATER NODE,Pipe Nodes
 Component Set,50,BRANCH,OFFICE SHARED SERVICE WATER LOOP DEMAND BRANCH 2,WATERUSE:CONNECTIONS,OFFICE WHOLEBUILDING - MD OFFICE - 90.1-2019 WUC 0.31GPM AT 140F,OFFICE WHOLEBUILDING - MD OFFICE - 90.1-2019 WUC 0.31GPM AT 140F INLET WATER NODE,OFFICE WHOLEBUILDING - MD OFFICE - 90.1-2019 WUC 0.31GPM AT 140F OUTLET WATER NODE,DHW Nodes
 Component Set,51,BRANCH,OFFICE SHARED SERVICE WATER LOOP DEMAND BYPASS BRANCH,PIPE:ADIABATIC,OFFICE SHARED SERVICE WATER LOOP DEMAND BYPASS PIPE,OFFICE SHARED SERVICE WATER LOOP DEMAND BYPASS PIPE INLET NODE,OFFICE SHARED SERVICE WATER LOOP DEMAND BYPASS PIPE OUTLET NODE,Pipe Nodes
 Component Set,52,BRANCH,OFFICE SHARED SERVICE WATER LOOP DEMAND OUTLET BRANCH,PIPE:ADIABATIC,PIPE ADIABATIC 8,PIPE ADIABATIC 8 INLET WATER NODE,OFFICE SHARED SERVICE WATER LOOP DEMAND OUTLET NODE,Pipe Nodes
 Component Set,53,ZONEHVAC:AIRDISTRIBUTIONUNIT,ADU ZONE OFFICE WHOLEBUILDING - MD OFFICE A  - STORY GROUND PSZ-AC DIFFUSER,AIRTERMINAL:SINGLEDUCT:CONSTANTVOLUME:NOREHEAT,ZONE OFFICE WHOLEBUILDING - MD OFFICE A  - STORY GROUND PSZ-AC DIFFUSER,ZONE OFFICE WHOLEBUILDING - MD OFFICE A  - STORY GROUND PSZ-AC DIFFUSER INLET AIR NODE,ZONE OFFICE WHOLEBUILDING - MD OFFICE A  - STORY GROUND PSZ-AC DIFFUSER OUTLET AIR NODE,Air Nodes
 Component Set,54,ZONEHVAC:AIRDISTRIBUTIONUNIT,ADU ZONE OFFICE WHOLEBUILDING - MD OFFICE A END_A - STORY GROUND PSZ-AC DIFFUSER,AIRTERMINAL:SINGLEDUCT:CONSTANTVOLUME:NOREHEAT,ZONE OFFICE WHOLEBUILDING - MD OFFICE A END_A - STORY GROUND PSZ-AC DIFFUSER,ZONE OFFICE WHOLEBUILDING - MD OFFICE A END_A - STORY GROUND PSZ-AC DIFFUSER INLET AIR NODE,ZONE OFFICE WHOLEBUILDING - MD OFFICE A END_A - STORY GROUND PSZ-AC DIFFUSER OUTLET AIR NODE,Air Nodes
 Component Set,55,ZONEHVAC:AIRDISTRIBUTIONUNIT,ADU ZONE OFFICE WHOLEBUILDING - MD OFFICE A END_B - STORY GROUND PSZ-AC DIFFUSER,AIRTERMINAL:SINGLEDUCT:CONSTANTVOLUME:NOREHEAT,ZONE OFFICE WHOLEBUILDING - MD OFFICE A END_B - STORY GROUND PSZ-AC DIFFUSER,ZONE OFFICE WHOLEBUILDING - MD OFFICE A END_B - STORY GROUND PSZ-AC DIFFUSER INLET AIR NODE,ZONE OFFICE WHOLEBUILDING - MD OFFICE A END_B - STORY GROUND PSZ-AC DIFFUSER OUTLET AIR NODE,Air Nodes
 Component Set,56,ZONEHVAC:AIRDISTRIBUTIONUNIT,ADU ZONE OFFICE WHOLEBUILDING - MD OFFICE B  - STORY GROUND PSZ-AC DIFFUSER,AIRTERMINAL:SINGLEDUCT:CONSTANTVOLUME:NOREHEAT,ZONE OFFICE WHOLEBUILDING - MD OFFICE B  - STORY GROUND PSZ-AC DIFFUSER,ZONE OFFICE WHOLEBUILDING - MD OFFICE B  - STORY GROUND PSZ-AC DIFFUSER INLET AIR NODE,ZONE OFFICE WHOLEBUILDING - MD OFFICE B  - STORY GROUND PSZ-AC DIFFUSER OUTLET AIR NODE,Air Nodes
 Component Set,57,ZONEHVAC:AIRDISTRIBUTIONUNIT,ADU ZONE OFFICE WHOLEBUILDING - MD OFFICE B END_A - STORY GROUND PSZ-AC DIFFUSER,AIRTERMINAL:SINGLEDUCT:CONSTANTVOLUME:NOREHEAT,ZONE OFFICE WHOLEBUILDING - MD OFFICE B END_A - STORY GROUND PSZ-AC DIFFUSER,ZONE OFFICE WHOLEBUILDING - MD OFFICE B END_A - STORY GROUND PSZ-AC DIFFUSER INLET AIR NODE,ZONE OFFICE WHOLEBUILDING - MD OFFICE B END_A - STORY GROUND PSZ-AC DIFFUSER OUTLET AIR NODE,Air Nodes
 Component Set,58,ZONEHVAC:AIRDISTRIBUTIONUNIT,ADU ZONE OFFICE WHOLEBUILDING - MD OFFICE B END_B - STORY GROUND PSZ-AC DIFFUSER,AIRTERMINAL:SINGLEDUCT:CONSTANTVOLUME:NOREHEAT,ZONE OFFICE WHOLEBUILDING - MD OFFICE B END_B - STORY GROUND PSZ-AC DIFFUSER,ZONE OFFICE WHOLEBUILDING - MD OFFICE B END_B - STORY GROUND PSZ-AC DIFFUSER INLET AIR NODE,ZONE OFFICE WHOLEBUILDING - MD OFFICE B END_B - STORY GROUND PSZ-AC DIFFUSER OUTLET AIR NODE,Air Nodes
 Component Set,59,ZONEHVAC:AIRDISTRIBUTIONUNIT,ADU ZONE OFFICE WHOLEBUILDING - MD OFFICE C  - STORY GROUND PSZ-AC DIFFUSER,AIRTERMINAL:SINGLEDUCT:CONSTANTVOLUME:NOREHEAT,ZONE OFFICE WHOLEBUILDING - MD OFFICE C  - STORY GROUND PSZ-AC DIFFUSER,ZONE OFFICE WHOLEBUILDING - MD OFFICE C  - STORY GROUND PSZ-AC DIFFUSER INLET AIR NODE,ZONE OFFICE WHOLEBUILDING - MD OFFICE C  - STORY GROUND PSZ-AC DIFFUSER OUTLET AIR NODE,Air Nodes
 Component Set,60,ZONEHVAC:AIRDISTRIBUTIONUNIT,ADU ZONE OFFICE WHOLEBUILDING - MD OFFICE C END_A - STORY GROUND PSZ-AC DIFFUSER,AIRTERMINAL:SINGLEDUCT:CONSTANTVOLUME:NOREHEAT,ZONE OFFICE WHOLEBUILDING - MD OFFICE C END_A - STORY GROUND PSZ-AC DIFFUSER,ZONE OFFICE WHOLEBUILDING - MD OFFICE C END_A - STORY GROUND PSZ-AC DIFFUSER INLET AIR NODE,ZONE OFFICE WHOLEBUILDING - MD OFFICE C END_A - STORY GROUND PSZ-AC DIFFUSER OUTLET AIR NODE,Air Nodes
 Component Set,61,ZONEHVAC:AIRDISTRIBUTIONUNIT,ADU ZONE OFFICE WHOLEBUILDING - MD OFFICE C END_B - STORY GROUND PSZ-AC DIFFUSER,AIRTERMINAL:SINGLEDUCT:CONSTANTVOLUME:NOREHEAT,ZONE OFFICE WHOLEBUILDING - MD OFFICE C END_B - STORY GROUND PSZ-AC DIFFUSER,ZONE OFFICE WHOLEBUILDING - MD OFFICE C END_B - STORY GROUND PSZ-AC DIFFUSER INLET AIR NODE,ZONE OFFICE WHOLEBUILDING - MD OFFICE C END_B - STORY GROUND PSZ-AC DIFFUSER OUTLET AIR NODE,Air Nodes
 Component Set,62,AIRLOOPHVAC:OUTDOORAIRSYSTEM,ZONE OFFICE WHOLEBUILDING - MD OFFICE A  - STORY GROUND PSZ-AC OA SYSTEM,OUTDOORAIR:MIXER,ZONE OFFICE WHOLEBUILDING - MD OFFICE A  - STORY GROUND PSZ-AC OA SYSTEM OUTDOOR AIR MIXER,ZONE OFFICE WHOLEBUILDING - MD OFFICE A  - STORY GROUND PSZ-AC OUTDOOR AIR NODE,ZONE OFFICE WHOLEBUILDING - MD OFFICE A  - STORY GROUND PSZ-AC MIXED AIR NODE,Air Nodes
 Component Set,63,AIRLOOPHVAC:OUTDOORAIRSYSTEM,ZONE OFFICE WHOLEBUILDING - MD OFFICE A END_A - STORY GROUND PSZ-AC OA SYSTEM,OUTDOORAIR:MIXER,ZONE OFFICE WHOLEBUILDING - MD OFFICE A END_A - STORY GROUND PSZ-AC OA SYSTEM OUTDOOR AIR MIXER,ZONE OFFICE WHOLEBUILDING - MD OFFICE A END_A - STORY GROUND PSZ-AC OUTDOOR AIR NODE,ZONE OFFICE WHOLEBUILDING - MD OFFICE A END_A - STORY GROUND PSZ-AC MIXED AIR NODE,Air Nodes
 Component Set,64,AIRLOOPHVAC:OUTDOORAIRSYSTEM,ZONE OFFICE WHOLEBUILDING - MD OFFICE A END_B - STORY GROUND PSZ-AC OA SYSTEM,OUTDOORAIR:MIXER,ZONE OFFICE WHOLEBUILDING - MD OFFICE A END_B - STORY GROUND PSZ-AC OA SYSTEM OUTDOOR AIR MIXER,ZONE OFFICE WHOLEBUILDING - MD OFFICE A END_B - STORY GROUND PSZ-AC OUTDOOR AIR NODE,ZONE OFFICE WHOLEBUILDING - MD OFFICE A END_B - STORY GROUND PSZ-AC MIXED AIR NODE,Air Nodes
 Component Set,65,AIRLOOPHVAC:OUTDOORAIRSYSTEM,ZONE OFFICE WHOLEBUILDING - MD OFFICE B  - STORY GROUND PSZ-AC OA SYSTEM,OUTDOORAIR:MIXER,ZONE OFFICE WHOLEBUILDING - MD OFFICE B  - STORY GROUND PSZ-AC OA SYSTEM OUTDOOR AIR MIXER,ZONE OFFICE WHOLEBUILDING - MD OFFICE B  - STORY GROUND PSZ-AC OUTDOOR AIR NODE,ZONE OFFICE WHOLEBUILDING - MD OFFICE B  - STORY GROUND PSZ-AC MIXED AIR NODE,Air Nodes
[...]
 Non-Parent Node Connection,ZONE OFFICE WHOLEBUILDING - MD OFFICE C END_A - STORY GROUND PSZ-AC WATER HTG COIL INLET WATER NODE,COIL:HEATING:WATER,ZONE OFFICE WHOLEBUILDING - MD OFFICE C END_A - STORY GROUND PSZ-AC WATER HTG COIL,Inlet,2
 Non-Parent Node Connection,ZONE OFFICE WHOLEBUILDING - MD OFFICE C END_A - STORY GROUND PSZ-AC WATER HTG COIL OUTLET WATER NODE,COIL:HEATING:WATER,ZONE OFFICE WHOLEBUILDING - MD OFFICE C END_A - STORY GROUND PSZ-AC WATER HTG COIL,Outlet,2
 Non-Parent Node Connection,ZONE OFFICE WHOLEBUILDING - MD OFFICE C END_A - STORY GROUND PSZ-AC UNITARY AC COOLING COIL - HEATING COIL NODE,COIL:HEATING:WATER,ZONE OFFICE WHOLEBUILDING - MD OFFICE C END_A - STORY GROUND PSZ-AC WATER HTG COIL,Inlet,1
 Non-Parent Node Connection,ZONE OFFICE WHOLEBUILDING - MD OFFICE C END_A - STORY GROUND PSZ-AC UNITARY AC HEATING COIL - FAN NODE,COIL:HEATING:WATER,ZONE OFFICE WHOLEBUILDING - MD OFFICE C END_A - STORY GROUND PSZ-AC WATER HTG COIL,Outlet,1
 Non-Parent Node Connection,ZONE OFFICE WHOLEBUILDING - MD OFFICE C END_B - STORY GROUND PSZ-AC WATER HTG COIL INLET WATER NODE,COIL:HEATING:WATER,ZONE OFFICE WHOLEBUILDING - MD OFFICE C END_B - STORY GROUND PSZ-AC WATER HTG COIL,Inlet,2
 Non-Parent Node Connection,ZONE OFFICE WHOLEBUILDING - MD OFFICE C END_B - STORY GROUND PSZ-AC WATER HTG COIL OUTLET WATER NODE,COIL:HEATING:WATER,ZONE OFFICE WHOLEBUILDING - MD OFFICE C END_B - STORY GROUND PSZ-AC WATER HTG COIL,Outlet,2
 Non-Parent Node Connection,ZONE OFFICE WHOLEBUILDING - MD OFFICE C END_B - STORY GROUND PSZ-AC UNITARY AC COOLING COIL - HEATING COIL NODE,COIL:HEATING:WATER,ZONE OFFICE WHOLEBUILDING - MD OFFICE C END_B - STORY GROUND PSZ-AC WATER HTG COIL,Inlet,1
 Non-Parent Node Connection,ZONE OFFICE WHOLEBUILDING - MD OFFICE C END_B - STORY GROUND PSZ-AC UNITARY AC HEATING COIL - FAN NODE,COIL:HEATING:WATER,ZONE OFFICE WHOLEBUILDING - MD OFFICE C END_B - STORY GROUND PSZ-AC WATER HTG COIL,Outlet,1
 Non-Parent Node Connection,ZONE OFFICE WHOLEBUILDING - MD OFFICE A  - STORY GROUND PSZ-AC MIXED AIR NODE,COIL:COOLING:DX:SINGLESPEED,ZONE OFFICE WHOLEBUILDING - MD OFFICE A  - STORY GROUND PSZ-AC 1SPD DX AC CLG COIL,Inlet,1
 Non-Parent Node Connection,ZONE OFFICE WHOLEBUILDING - MD OFFICE A  - STORY GROUND PSZ-AC UNITARY AC COOLING COIL - HEATING COIL NODE,COIL:COOLING:DX:SINGLESPEED,ZONE OFFICE WHOLEBUILDING - MD OFFICE A  - STORY GROUND PSZ-AC 1SPD DX AC CLG COIL,Outlet,1
 Non-Parent Node Connection,ZONE OFFICE WHOLEBUILDING - MD OFFICE A END_A - STORY GROUND PSZ-AC MIXED AIR NODE,COIL:COOLING:DX:SINGLESPEED,ZONE OFFICE WHOLEBUILDING - MD OFFICE A END_A - STORY GROUND PSZ-AC 1SPD DX AC CLG COIL,Inlet,1
 Non-Parent Node Connection,ZONE OFFICE WHOLEBUILDING - MD OFFICE A END_A - STORY GROUND PSZ-AC UNITARY AC COOLING COIL - HEATING COIL NODE,COIL:COOLING:DX:SINGLESPEED,ZONE OFFICE WHOLEBUILDING - MD OFFICE A END_A - STORY GROUND PSZ-AC 1SPD DX AC CLG COIL,Outlet,1
 Non-Parent Node Connection,ZONE OFFICE WHOLEBUILDING - MD OFFICE A END_B - STORY GROUND PSZ-AC MIXED AIR NODE,COIL:COOLING:DX:SINGLESPEED,ZONE OFFICE WHOLEBUILDING - MD OFFICE A END_B - STORY GROUND PSZ-AC 1SPD DX AC CLG COIL,Inlet,1
 Non-Parent Node Connection,ZONE OFFICE WHOLEBUILDING - MD OFFICE A END_B - STORY GROUND PSZ-AC UNITARY AC COOLING COIL - HEATING COIL NODE,COIL:COOLING:DX:SINGLESPEED,ZONE OFFICE WHOLEBUILDING - MD OFFICE A END_B - STORY GROUND PSZ-AC 1SPD DX AC CLG COIL,Outlet,1
 Non-Parent Node Connection,ZONE OFFICE WHOLEBUILDING - MD OFFICE B  - STORY GROUND PSZ-AC MIXED AIR NODE,COIL:COOLING:DX:SINGLESPEED,ZONE OFFICE WHOLEBUILDING - MD OFFICE B  - STORY GROUND PSZ-AC 1SPD DX AC CLG COIL,Inlet,1
 Non-Parent Node Connection,ZONE OFFICE WHOLEBUILDING - MD OFFICE B  - STORY GROUND PSZ-AC UNITARY AC COOLING COIL - HEATING COIL NODE,COIL:COOLING:DX:SINGLESPEED,ZONE OFFICE WHOLEBUILDING - MD OFFICE B  - STORY GROUND PSZ-AC 1SPD DX AC CLG COIL,Outlet,1
 Non-Parent Node Connection,ZONE OFFICE WHOLEBUILDING - MD OFFICE B END_A - STORY GROUND PSZ-AC MIXED AIR NODE,COIL:COOLING:DX:SINGLESPEED,ZONE OFFICE WHOLEBUILDING - MD OFFICE B END_A - STORY GROUND PSZ-AC 1SPD DX AC CLG COIL,Inlet,1
 Non-Parent Node Connection,ZONE OFFICE WHOLEBUILDING - MD OFFICE B END_A - STORY GROUND PSZ-AC UNITARY AC COOLING COIL - HEATING COIL NODE,COIL:COOLING:DX:SINGLESPEED,ZONE OFFICE WHOLEBUILDING - MD OFFICE B END_A - STORY GROUND PSZ-AC 1SPD DX AC CLG COIL,Outlet,1
 Non-Parent Node Connection,ZONE OFFICE WHOLEBUILDING - MD OFFICE B END_B - STORY GROUND PSZ-AC MIXED AIR NODE,COIL:COOLING:DX:SINGLESPEED,ZONE OFFICE WHOLEBUILDING - MD OFFICE B END_B - STORY GROUND PSZ-AC 1SPD DX AC CLG COIL,Inlet,1
 Non-Parent Node Connection,ZONE OFFICE WHOLEBUILDING - MD OFFICE B END_B - STORY GROUND PSZ-AC UNITARY AC COOLING COIL - HEATING COIL NODE,COIL:COOLING:DX:SINGLESPEED,ZONE OFFICE WHOLEBUILDING - MD OFFICE B END_B - STORY GROUND PSZ-AC 1SPD DX AC CLG COIL,Outlet,1
 Non-Parent Node Connection,ZONE OFFICE WHOLEBUILDING - MD OFFICE C  - STORY GROUND PSZ-AC MIXED AIR NODE,COIL:COOLING:DX:SINGLESPEED,ZONE OFFICE WHOLEBUILDING - MD OFFICE C  - STORY GROUND PSZ-AC 1SPD DX AC CLG COIL,Inlet,1
 Non-Parent Node Connection,ZONE OFFICE WHOLEBUILDING - MD OFFICE C  - STORY GROUND PSZ-AC UNITARY AC COOLING COIL - HEATING COIL NODE,COIL:COOLING:DX:SINGLESPEED,ZONE OFFICE WHOLEBUILDING - MD OFFICE C  - STORY GROUND PSZ-AC 1SPD DX AC CLG COIL,Outlet,1
 Non-Parent Node Connection,ZONE OFFICE WHOLEBUILDING - MD OFFICE C END_A - STORY GROUND PSZ-AC MIXED AIR NODE,COIL:COOLING:DX:SINGLESPEED,ZONE OFFICE WHOLEBUILDING - MD OFFICE C END_A - STORY GROUND PSZ-AC 1SPD DX AC CLG COIL,Inlet,1
 Non-Parent Node Connection,ZONE OFFICE WHOLEBUILDING - MD OFFICE C END_A - STORY GROUND PSZ-AC UNITARY AC COOLING COIL - HEATING COIL NODE,COIL:COOLING:DX:SINGLESPEED,ZONE OFFICE WHOLEBUILDING - MD OFFICE C END_A - STORY GROUND PSZ-AC 1SPD DX AC CLG COIL,Outlet,1
 Non-Parent Node Connection,ZONE OFFICE WHOLEBUILDING - MD OFFICE C END_B - STORY GROUND PSZ-AC MIXED AIR NODE,COIL:COOLING:DX:SINGLESPEED,ZONE OFFICE WHOLEBUILDING - MD OFFICE C END_B - STORY GROUND PSZ-AC 1SPD DX AC CLG COIL,Inlet,1
 Non-Parent Node Connection,ZONE OFFICE WHOLEBUILDING - MD OFFICE C END_B - STORY GROUND PSZ-AC UNITARY AC COOLING COIL - HEATING COIL NODE,COIL:COOLING:DX:SINGLESPEED,ZONE OFFICE WHOLEBUILDING - MD OFFICE C END_B - STORY GROUND PSZ-AC 1SPD DX AC CLG COIL,Outlet,1
 Non-Parent Node Connection,ZONE OFFICE WHOLEBUILDING - MD OFFICE A  - STORY GROUND PSZ-AC UNITARY AC FAN - SUPPLEMENTAL COIL NODE,COIL:HEATING:ELECTRIC,ZONE OFFICE WHOLEBUILDING - MD OFFICE A  - STORY GROUND PSZ-AC ELECTRIC BACKUP HTG COIL,Inlet,1
 Non-Parent Node Connection,ZONE OFFICE WHOLEBUILDING - MD OFFICE A  - STORY GROUND PSZ-AC SUPPLY OUTLET NODE,COIL:HEATING:ELECTRIC,ZONE OFFICE WHOLEBUILDING - MD OFFICE A  - STORY GROUND PSZ-AC ELECTRIC BACKUP HTG COIL,Outlet,1
 Non-Parent Node Connection,ZONE OFFICE WHOLEBUILDING - MD OFFICE A END_A - STORY GROUND PSZ-AC UNITARY AC FAN - SUPPLEMENTAL COIL NODE,COIL:HEATING:ELECTRIC,ZONE OFFICE WHOLEBUILDING - MD OFFICE A END_A - STORY GROUND PSZ-AC ELECTRIC BACKUP HTG COIL,Inlet,1
 Non-Parent Node Connection,ZONE OFFICE WHOLEBUILDING - MD OFFICE A END_A - STORY GROUND PSZ-AC SUPPLY OUTLET NODE,COIL:HEATING:ELECTRIC,ZONE OFFICE WHOLEBUILDING - MD OFFICE A END_A - STORY GROUND PSZ-AC ELECTRIC BACKUP HTG COIL,Outlet,1
 Non-Parent Node Connection,ZONE OFFICE WHOLEBUILDING - MD OFFICE A END_B - STORY GROUND PSZ-AC UNITARY AC FAN - SUPPLEMENTAL COIL NODE,COIL:HEATING:ELECTRIC,ZONE OFFICE WHOLEBUILDING - MD OFFICE A END_B - STORY GROUND PSZ-AC ELECTRIC BACKUP HTG COIL,Inlet,1
 Non-Parent Node Connection,ZONE OFFICE WHOLEBUILDING - MD OFFICE A END_B - STORY GROUND PSZ-AC SUPPLY OUTLET NODE,COIL:HEATING:ELECTRIC,ZONE OFFICE WHOLEBUILDING - MD OFFICE A END_B - STORY GROUND PSZ-AC ELECTRIC BACKUP HTG COIL,Outlet,1
 Non-Parent Node Connection,ZONE OFFICE WHOLEBUILDING - MD OFFICE B  - STORY GROUND PSZ-AC UNITARY AC FAN - SUPPLEMENTAL COIL NODE,COIL:HEATING:ELECTRIC,ZONE OFFICE WHOLEBUILDING - MD OFFICE B  - STORY GROUND PSZ-AC ELECTRIC BACKUP HTG COIL,Inlet,1
 Non-Parent Node Connection,ZONE OFFICE WHOLEBUILDING - MD OFFICE B  - STORY GROUND PSZ-AC SUPPLY OUTLET NODE,COIL:HEATING:ELECTRIC,ZONE OFFICE WHOLEBUILDING - MD OFFICE B  - STORY GROUND PSZ-AC ELECTRIC BACKUP HTG COIL,Outlet,1
 Non-Parent Node Connection,ZONE OFFICE WHOLEBUILDING - MD OFFICE B END_A - STORY GROUND PSZ-AC UNITARY AC FAN - SUPPLEMENTAL COIL NODE,COIL:HEATING:ELECTRIC,ZONE OFFICE WHOLEBUILDING - MD OFFICE B END_A - STORY GROUND PSZ-AC ELECTRIC BACKUP HTG COIL,Inlet,1
 Non-Parent Node Connection,ZONE OFFICE WHOLEBUILDING - MD OFFICE B END_A - STORY GROUND PSZ-AC SUPPLY OUTLET NODE,COIL:HEATING:ELECTRIC,ZONE OFFICE WHOLEBUILDING - MD OFFICE B END_A - STORY GROUND PSZ-AC ELECTRIC BACKUP HTG COIL,Outlet,1
 Non-Parent Node Connection,ZONE OFFICE WHOLEBUILDING - MD OFFICE B END_B - STORY GROUND PSZ-AC UNITARY AC FAN - SUPPLEMENTAL COIL NODE,COIL:HEATING:ELECTRIC,ZONE OFFICE WHOLEBUILDING - MD OFFICE B END_B - STORY GROUND PSZ-AC ELECTRIC BACKUP HTG COIL,Inlet,1
 Non-Parent Node Connection,ZONE OFFICE WHOLEBUILDING - MD OFFICE B END_B - STORY GROUND PSZ-AC SUPPLY OUTLET NODE,COIL:HEATING:ELECTRIC,ZONE OFFICE WHOLEBUILDING - MD OFFICE B END_B - STORY GROUND PSZ-AC ELECTRIC BACKUP HTG COIL,Outlet,1
 Non-Parent Node Connection,ZONE OFFICE WHOLEBUILDING - MD OFFICE C  - STORY GROUND PSZ-AC UNITARY AC FAN - SUPPLEMENTAL COIL NODE,COIL:HEATING:ELECTRIC,ZONE OFFICE WHOLEBUILDING - MD OFFICE C  - STORY GROUND PSZ-AC ELECTRIC BACKUP HTG COIL,Inlet,1
 Non-Parent Node Connection,ZONE OFFICE WHOLEBUILDING - MD OFFICE C  - STORY GROUND PSZ-AC SUPPLY OUTLET NODE,COIL:HEATING:ELECTRIC,ZONE OFFICE WHOLEBUILDING - MD OFFICE C  - STORY GROUND PSZ-AC ELECTRIC BACKUP HTG COIL,Outlet,1
 Non-Parent Node Connection,ZONE OFFICE WHOLEBUILDING - MD OFFICE C END_A - STORY GROUND PSZ-AC UNITARY AC FAN - SUPPLEMENTAL COIL NODE,COIL:HEATING:ELECTRIC,ZONE OFFICE WHOLEBUILDING - MD OFFICE C END_A - STORY GROUND PSZ-AC ELECTRIC BACKUP HTG COIL,Inlet,1
 Non-Parent Node Connection,ZONE OFFICE WHOLEBUILDING - MD OFFICE C END_A - STORY GROUND PSZ-AC SUPPLY OUTLET NODE,COIL:HEATING:ELECTRIC,ZONE OFFICE WHOLEBUILDING - MD OFFICE C END_A - STORY GROUND PSZ-AC ELECTRIC BACKUP HTG COIL,Outlet,1
 Non-Parent Node Connection,ZONE OFFICE WHOLEBUILDING - MD OFFICE C END_B - STORY GROUND PSZ-AC UNITARY AC FAN - SUPPLEMENTAL COIL NODE,COIL:HEATING:ELECTRIC,ZONE OFFICE WHOLEBUILDING - MD OFFICE C END_B - STORY GROUND PSZ-AC ELECTRIC BACKUP HTG COIL,Inlet,1
 Non-Parent Node Connection,ZONE OFFICE WHOLEBUILDING - MD OFFICE C END_B - STORY GROUND PSZ-AC SUPPLY OUTLET NODE,COIL:HEATING:ELECTRIC,ZONE OFFICE WHOLEBUILDING - MD OFFICE C END_B - STORY GROUND PSZ-AC ELECTRIC BACKUP HTG COIL,Outlet,1
 Non-Parent Node Connection,ZONE OFFICE WHOLEBUILDING - MD OFFICE A  - STORY GROUND PSZ-AC MIXED AIR NODE,CONTROLLER:OUTDOORAIR,ZONE OFFICE WHOLEBUILDING - MD OFFICE A  - STORY GROUND PSZ-AC OA SYSTEM CONTROLLER,Sensor,1
 Non-Parent Node Connection,ZONE OFFICE WHOLEBUILDING - MD OFFICE A  - STORY GROUND PSZ-AC OUTDOOR AIR NODE,CONTROLLER:OUTDOORAIR,ZONE OFFICE WHOLEBUILDING - MD OFFICE A  - STORY GROUND PSZ-AC OA SYSTEM CONTROLLER,Actuator,1
 Non-Parent Node Connection,ZONE OFFICE WHOLEBUILDING - MD OFFICE A  - STORY GROUND PSZ-AC RELIEF AIR NODE,CONTROLLER:OUTDOORAIR,ZONE OFFICE WHOLEBUILDING - MD OFFICE A  - STORY GROUND PSZ-AC OA SYSTEM CONTROLLER,Actuator,1
 Non-Parent Node Connection,ZONE OFFICE WHOLEBUILDING - MD OFFICE A  - STORY GROUND PSZ-AC SUPPLY INLET NODE,CONTROLLER:OUTDOORAIR,ZONE OFFICE WHOLEBUILDING - MD OFFICE A  - STORY GROUND PSZ-AC OA SYSTEM CONTROLLER,Sensor,1
 Non-Parent Node Connection,ZONE OFFICE WHOLEBUILDING - MD OFFICE A END_A - STORY GROUND PSZ-AC MIXED AIR NODE,CONTROLLER:OUTDOORAIR,ZONE OFFICE WHOLEBUILDING - MD OFFICE A END_A - STORY GROUND PSZ-AC OA SYSTEM CONTROLLER,Sensor,1
 Non-Parent Node Connection,ZONE OFFICE WHOLEBUILDING - MD OFFICE A END_A - STORY GROUND PSZ-AC OUTDOOR AIR NODE,CONTROLLER:OUTDOORAIR,ZONE OFFICE WHOLEBUILDING - MD OFFICE A END_A - STORY GROUND PSZ-AC OA SYSTEM CONTROLLER,Actuator,1
 Non-Parent Node Connection,ZONE OFFICE WHOLEBUILDING - MD OFFICE A END_A - STORY GROUND PSZ-AC RELIEF AIR NODE,CONTROLLER:OUTDOORAIR,ZONE OFFICE WHOLEBUILDING - MD OFFICE A END_A - STORY GROUND PSZ-AC OA SYSTEM CONTROLLER,Actuator,1
 Non-Parent Node Connection,ZONE OFFICE WHOLEBUILDING - MD OFFICE A END_A - STORY GROUND PSZ-AC SUPPLY INLET NODE,CONTROLLER:OUTDOORAIR,ZONE OFFICE WHOLEBUILDING - MD OFFICE A END_A - STORY GROUND PSZ-AC OA SYSTEM CONTROLLER,Sensor,1
 Non-Parent Node Connection,ZONE OFFICE WHOLEBUILDING - MD OFFICE A END_B - STORY GROUND PSZ-AC MIXED AIR NODE,CONTROLLER:OUTDOORAIR,ZONE OFFICE WHOLEBUILDING - MD OFFICE A END_B - STORY GROUND PSZ-AC OA SYSTEM CONTROLLER,Sensor,1
 Non-Parent Node Connection,ZONE OFFICE WHOLEBUILDING - MD OFFICE A END_B - STORY GROUND PSZ-AC OUTDOOR AIR NODE,CONTROLLER:OUTDOORAIR,ZONE OFFICE WHOLEBUILDING - MD OFFICE A END_B - STORY GROUND PSZ-AC OA SYSTEM CONTROLLER,Actuator,1
 Non-Parent Node Connection,ZONE OFFICE WHOLEBUILDING - MD OFFICE A END_B - STORY GROUND PSZ-AC RELIEF AIR NODE,CONTROLLER:OUTDOORAIR,ZONE OFFICE WHOLEBUILDING - MD OFFICE A END_B - STORY GROUND PSZ-AC OA SYSTEM CONTROLLER,Actuator,1
 Non-Parent Node Connection,ZONE OFFICE WHOLEBUILDING - MD OFFICE A END_B - STORY GROUND PSZ-AC SUPPLY INLET NODE,CONTROLLER:OUTDOORAIR,ZONE OFFICE WHOLEBUILDING - MD OFFICE A END_B - STORY GROUND PSZ-AC OA SYSTEM CONTROLLER,Sensor,1
 Non-Parent Node Connection,ZONE OFFICE WHOLEBUILDING - MD OFFICE B  - STORY GROUND PSZ-AC MIXED AIR NODE,CONTROLLER:OUTDOORAIR,ZONE OFFICE WHOLEBUILDING - MD OFFICE B  - STORY GROUND PSZ-AC OA SYSTEM CONTROLLER,Sensor,1
 Non-Parent Node Connection,ZONE OFFICE WHOLEBUILDING - MD OFFICE B  - STORY GROUND PSZ-AC OUTDOOR AIR NODE,CONTROLLER:OUTDOORAIR,ZONE OFFICE WHOLEBUILDING - MD OFFICE B  - STORY GROUND PSZ-AC OA SYSTEM CONTROLLER,Actuator,1
 Non-Parent Node Connection,ZONE OFFICE WHOLEBUILDING - MD OFFICE B  - STORY GROUND PSZ-AC RELIEF AIR NODE,CONTROLLER:OUTDOORAIR,ZONE OFFICE WHOLEBUILDING - MD OFFICE B  - STORY GROUND PSZ-AC OA SYSTEM CONTROLLER,Actuator,1
 Non-Parent Node Connection,ZONE OFFICE WHOLEBUILDING - MD OFFICE B  - STORY GROUND PSZ-AC SUPPLY INLET NODE,CONTROLLER:OUTDOORAIR,ZONE OFFICE WHOLEBUILDING - MD OFFICE B  - STORY GROUND PSZ-AC OA SYSTEM CONTROLLER,Sensor,1
 Non-Parent Node Connection,ZONE OFFICE WHOLEBUILDING - MD OFFICE B END_A - STORY GROUND PSZ-AC MIXED AIR NODE,CONTROLLER:OUTDOORAIR,ZONE OFFICE WHOLEBUILDING - MD OFFICE B END_A - STORY GROUND PSZ-AC OA SYSTEM CONTROLLER,Sensor,1
 Non-Parent Node Connection,ZONE OFFICE WHOLEBUILDING - MD OFFICE B END_A - STORY GROUND PSZ-AC OUTDOOR AIR NODE,CONTROLLER:OUTDOORAIR,ZONE OFFICE WHOLEBUILDING - MD OFFICE B END_A - STORY GROUND PSZ-AC OA SYSTEM CONTROLLER,Actuator,1
 Non-Parent Node Connection,ZONE OFFICE WHOLEBUILDING - MD OFFICE B END_A - STORY GROUND PSZ-AC RELIEF AIR NODE,CONTROLLER:OUTDOORAIR,ZONE OFFICE WHOLEBUILDING - MD OFFICE B END_A - STORY GROUND PSZ-AC OA SYSTEM CONTROLLER,Actuator,1
 Non-Parent Node Connection,ZONE OFFICE WHOLEBUILDING - MD OFFICE B END_A - STORY GROUND PSZ-AC SUPPLY INLET NODE,CONTROLLER:OUTDOORAIR,ZONE OFFICE WHOLEBUILDING - MD OFFICE B END_A - STORY GROUND PSZ-AC OA SYSTEM CONTROLLER,Sensor,1
 Non-Parent Node Connection,ZONE OFFICE WHOLEBUILDING - MD OFFICE B END_B - STORY GROUND PSZ-AC MIXED AIR NODE,CONTROLLER:OUTDOORAIR,ZONE OFFICE WHOLEBUILDING - MD OFFICE B END_B - STORY GROUND PSZ-AC OA SYSTEM CONTROLLER,Sensor,1
 Non-Parent Node Connection,ZONE OFFICE WHOLEBUILDING - MD OFFICE B END_B - STORY GROUND PSZ-AC OUTDOOR AIR NODE,CONTROLLER:OUTDOORAIR,ZONE OFFICE WHOLEBUILDING - MD OFFICE B END_B - STORY GROUND PSZ-AC OA SYSTEM CONTROLLER,Actuator,1
 Non-Parent Node Connection,ZONE OFFICE WHOLEBUILDING - MD OFFICE B END_B - STORY GROUND PSZ-AC RELIEF AIR NODE,CONTROLLER:OUTDOORAIR,ZONE OFFICE WHOLEBUILDING - MD OFFICE B END_B - STORY GROUND PSZ-AC OA SYSTEM CONTROLLER,Actuator,1
 Non-Parent Node Connection,ZONE OFFICE WHOLEBUILDING - MD OFFICE B END_B - STORY GROUND PSZ-AC SUPPLY INLET NODE,CONTROLLER:OUTDOORAIR,ZONE OFFICE WHOLEBUILDING - MD OFFICE B END_B - STORY GROUND PSZ-AC OA SYSTEM CONTROLLER,Sensor,1
 Non-Parent Node Connection,ZONE OFFICE WHOLEBUILDING - MD OFFICE C  - STORY GROUND PSZ-AC MIXED AIR NODE,CONTROLLER:OUTDOORAIR,ZONE OFFICE WHOLEBUILDING - MD OFFICE C  - STORY GROUND PSZ-AC OA SYSTEM CONTROLLER,Sensor,1
 Non-Parent Node Connection,ZONE OFFICE WHOLEBUILDING - MD OFFICE C  - STORY GROUND PSZ-AC OUTDOOR AIR NODE,CONTROLLER:OUTDOORAIR,ZONE OFFICE WHOLEBUILDING - MD OFFICE C  - STORY GROUND PSZ-AC OA SYSTEM CONTROLLER,Actuator,1
 Non-Parent Node Connection,ZONE OFFICE WHOLEBUILDING - MD OFFICE C  - STORY GROUND PSZ-AC RELIEF AIR NODE,CONTROLLER:OUTDOORAIR,ZONE OFFICE WHOLEBUILDING - MD OFFICE C  - STORY GROUND PSZ-AC OA SYSTEM CONTROLLER,Actuator,1
 Non-Parent Node Connection,ZONE OFFICE WHOLEBUILDING - MD OFFICE C  - STORY GROUND PSZ-AC SUPPLY INLET NODE,CONTROLLER:OUTDOORAIR,ZONE OFFICE WHOLEBUILDING - MD OFFICE C  - STORY GROUND PSZ-AC OA SYSTEM CONTROLLER,Sensor,1
 Non-Parent Node Connection,ZONE OFFICE WHOLEBUILDING - MD OFFICE C END_A - STORY GROUND PSZ-AC MIXED AIR NODE,CONTROLLER:OUTDOORAIR,ZONE OFFICE WHOLEBUILDING - MD OFFICE C END_A - STORY GROUND PSZ-AC OA SYSTEM CONTROLLER,Sensor,1
 Non-Parent Node Connection,ZONE OFFICE WHOLEBUILDING - MD OFFICE C END_A - STORY GROUND PSZ-AC OUTDOOR AIR NODE,CONTROLLER:OUTDOORAIR,ZONE OFFICE WHOLEBUILDING - MD OFFICE C END_A - STORY GROUND PSZ-AC OA SYSTEM CONTROLLER,Actuator,1
 Non-Parent Node Connection,ZONE OFFICE WHOLEBUILDING - MD OFFICE C END_A - STORY GROUND PSZ-AC RELIEF AIR NODE,CONTROLLER:OUTDOORAIR,ZONE OFFICE WHOLEBUILDING - MD OFFICE C END_A - STORY GROUND PSZ-AC OA SYSTEM CONTROLLER,Actuator,1
 Non-Parent Node Connection,ZONE OFFICE WHOLEBUILDING - MD OFFICE C END_A - STORY GROUND PSZ-AC SUPPLY INLET NODE,CONTROLLER:OUTDOORAIR,ZONE OFFICE WHOLEBUILDING - MD OFFICE C END_A - STORY GROUND PSZ-AC OA SYSTEM CONTROLLER,Sensor,1
 Non-Parent Node Connection,ZONE OFFICE WHOLEBUILDING - MD OFFICE C END_B - STORY GROUND PSZ-AC MIXED AIR NODE,CONTROLLER:OUTDOORAIR,ZONE OFFICE WHOLEBUILDING - MD OFFICE C END_B - STORY GROUND PSZ-AC OA SYSTEM CONTROLLER,Sensor,1
 Non-Parent Node Connection,ZONE OFFICE WHOLEBUILDING - MD OFFICE C END_B - STORY GROUND PSZ-AC OUTDOOR AIR NODE,CONTROLLER:OUTDOORAIR,ZONE OFFICE WHOLEBUILDING - MD OFFICE C END_B - STORY GROUND PSZ-AC OA SYSTEM CONTROLLER,Actuator,1
 Non-Parent Node Connection,ZONE OFFICE WHOLEBUILDING - MD OFFICE C END_B - STORY GROUND PSZ-AC RELIEF AIR NODE,CONTROLLER:OUTDOORAIR,ZONE OFFICE WHOLEBUILDING - MD OFFICE C END_B - STORY GROUND PSZ-AC OA SYSTEM CONTROLLER,Actuator,1
 Non-Parent Node Connection,ZONE OFFICE WHOLEBUILDING - MD OFFICE C END_B - STORY GROUND PSZ-AC SUPPLY INLET NODE,CONTROLLER:OUTDOORAIR,ZONE OFFICE WHOLEBUILDING - MD OFFICE C END_B - STORY GROUND PSZ-AC OA SYSTEM CONTROLLER,Sensor,1
 Non-Parent Node Connection,HOT WATER LOOP SUPPLY INLET NODE,PUMP:VARIABLESPEED,HOT WATER LOOP PUMP,Inlet,1
 Non-Parent Node Connection,HOT WATER LOOP PUMP OUTLET WATER NODE,PUMP:VARIABLESPEED,HOT WATER LOOP PUMP,Outlet,1
 Non-Parent Node Connection,MAIN SERVICE WATER LOOP SUPPLY INLET NODE,PUMP:VARIABLESPEED,MAIN SERVICE WATER LOOP WATER MAINS PRESSURE DRIVEN,Inlet,1
 Non-Parent Node Connection,MAIN SERVICE WATER LOOP WATER MAINS PRESSURE DRIVEN OUTLET WATER NODE,PUMP:VARIABLESPEED,MAIN SERVICE WATER LOOP WATER MAINS PRESSURE DRIVEN,Outlet,1
 Non-Parent Node Connection,OFFICE SHARED SERVICE WATER LOOP SUPPLY INLET NODE,PUMP:CONSTANTSPEED,OFFICE SHARED SERVICE WATER LOOP CIRCULATOR PUMP,Inlet,1
 Non-Parent Node Connection,OFFICE SHARED SERVICE WATER LOOP CIRCULATOR PUMP OUTLET WATER NODE,PUMP:CONSTANTSPEED,OFFICE SHARED SERVICE WATER LOOP CIRCULATOR PUMP,Outlet,1
