Program Version,EnergyPlus, Version 23.1.0-87ed9199d4, YMD=2023.06.03 16:12
! <Version>, Version ID
 Version, 23.1
! <Timesteps per Hour>, #TimeSteps, Minutes per TimeStep {minutes}
 Timesteps per Hour,  6, 10
! <System Convergence Limits>, Minimum System TimeStep {minutes}, Max HVAC Iterations, Minimum Plant Iterations, Maximum Plant Iterations
 System Convergence Limits, 1, 20, 2, 8
! <Simulation Control>, Do Zone Sizing, Do System Sizing, Do Plant Sizing, Do Design Days, Do Weather Simulation, Do HVAC Sizing Simulation
 Simulation Control, Yes, Yes, Yes, Yes, No, Yes
! <Performance Precision Tradeoffs>, Use Coil Direct Simulation, Zone Radiant Exchange Algorithm, Override Mode, Number of Timestep In Hour, Force Euler Method, Minimum Number of Warmup Days, Force Suppress All Begin Environment Resets, Minimum System Timestep, MaxZoneTempDiff, MaxAllowedDelTemp
 Performance Precision Tradeoffs, No, ScriptF, Normal, 6, No, 1, No, 1.0, 0.300, 2.0000E-003
! <Output Reporting Tolerances>, Tolerance for Time Heating Setpoint Not Met, Tolerance for Zone Cooling Setpoint Not Met Time
 Output Reporting Tolerances, 0.200, 0.200, 
! <Site:GroundTemperature:BuildingSurface>,Jan{C},Feb{C},Mar{C},Apr{C},May{C},Jun{C},Jul{C},Aug{C},Sep{C},Oct{C},Nov{C},Dec{C}
 Site:GroundTemperature:BuildingSurface,  18.00,  18.00,  18.00,  18.00,  18.00,  18.00,  18.00,  18.00,  18.00,  18.00,  18.00,  18.00
! <Site:GroundTemperature:FCfactorMethod>,Jan{C},Feb{C},Mar{C},Apr{C},May{C},Jun{C},Jul{C},Aug{C},Sep{C},Oct{C},Nov{C},Dec{C}
 Site:GroundTemperature:FCfactorMethod,  -3.10, -17.70, -19.30, -17.60, -15.40, -10.30,   0.70,  10.60,  16.00,  16.90,  14.20,   6.70
! <Site:GroundTemperature:Shallow>,Jan{C},Feb{C},Mar{C},Apr{C},May{C},Jun{C},Jul{C},Aug{C},Sep{C},Oct{C},Nov{C},Dec{C}
 Site:GroundTemperature:Shallow,  13.00,  13.00,  13.00,  13.00,  13.00,  13.00,  13.00,  13.00,  13.00,  13.00,  13.00,  13.00
! <Site:GroundTemperature:Deep>,Jan{C},Feb{C},Mar{C},Apr{C},May{C},Jun{C},Jul{C},Aug{C},Sep{C},Oct{C},Nov{C},Dec{C}
 Site:GroundTemperature:Deep,  16.00,  16.00,  16.00,  16.00,  16.00,  16.00,  16.00,  16.00,  16.00,  16.00,  16.00,  16.00
! <Site:GroundReflectance>,Jan{dimensionless},Feb{dimensionless},Mar{dimensionless},Apr{dimensionless},May{dimensionless},Jun{dimensionless},Jul{dimensionless},Aug{dimensionless},Sep{dimensionless},Oct{dimensionless},Nov{dimensionless},Dec{dimensionless}
 Site:GroundReflectance,  0.20,  0.20,  0.20,  0.20,  0.20,  0.20,  0.20,  0.20,  0.20,  0.20,  0.20,  0.20
! <Site:GroundReflectance:SnowModifier>, Normal, Daylighting {dimensionless}
 Site:GroundReflectance:SnowModifier,   1.000,   1.000
! <Site:GroundReflectance:Snow>,Jan{dimensionless},Feb{dimensionless},Mar{dimensionless},Apr{dimensionless},May{dimensionless},Jun{dimensionless},Jul{dimensionless},Aug{dimensionless},Sep{dimensionless},Oct{dimensionless},Nov{dimensionless},Dec{dimensionless}
 Site:GroundReflectance:Snow,  0.20,  0.20,  0.20,  0.20,  0.20,  0.20,  0.20,  0.20,  0.20,  0.20,  0.20,  0.20
! <Site:GroundReflectance:Snow:Daylighting>,Jan{dimensionless},Feb{dimensionless},Mar{dimensionless},Apr{dimensionless},May{dimensionless},Jun{dimensionless},Jul{dimensionless},Aug{dimensionless},Sep{dimensionless},Oct{dimensionless},Nov{dimensionless},Dec{dimensionless}
 Site:GroundReflectance:Snow:Daylighting,  0.20,  0.20,  0.20,  0.20,  0.20,  0.20,  0.20,  0.20,  0.20,  0.20,  0.20,  0.20
! <Environment:Weather Station>,Wind Sensor Height Above Ground {m},Wind Speed Profile Exponent {},Wind Speed Profile Boundary Layer Thickness {m},Air Temperature Sensor Height Above Ground {m},Wind Speed Modifier Coefficient-Internal,Temperature Modifier Coefficient-Internal
Environment:Weather Station,10.000,0.140,270.000,1.500,1.586,9.750E-003
! <Site:Location>, Location Name, Latitude {N+/S- Deg}, Longitude {E+/W- Deg},  Time Zone Number {GMT+/-}, Elevation {m},  Standard Pressure at Elevation {Pa}, Standard RhoAir at Elevation
Site:Location,Kodiak Airport AK USA TMY3 WMO#=703500,57.75,-152.50,-9.00,5.00,101265,1.2036
! <Site Water Mains Temperature Information>,Calculation Method{},Water Mains Temperature Schedule Name{},Annual Average Outdoor Air Temperature{C},Maximum Difference In Monthly Average Outdoor Air Temperatures{deltaC},Fixed Default Water Mains Temperature{C}
Site Water Mains Temperature Information,Correlation,NA,-1.53,36.20,NA
! <Building Information>, Building Name,North Axis {deg},Terrain,  Loads Convergence Tolerance Value,Temperature Convergence Tolerance Value,  Solar Distribution,Maximum Number of Warmup Days,Minimum Number of Warmup Days
 Building Information,90.1-2019|MediumOffice,0.000,City,4.00000E-002,0.20000,FullInteriorAndExterior,25,6
! <Inside Convection Algorithm>, Algorithm {Simple | TARP | CeilingDiffuser | AdaptiveConvectionAlgorithm}
Inside Convection Algorithm,TARP
! <Outside Convection Algorithm>, Algorithm {SimpleCombined | TARP | MoWitt | DOE-2 | AdaptiveConvectionAlgorithm}
Outside Convection Algorithm,TARP
! <Sky Radiance Distribution>, Value {Anisotropic}
Sky Radiance Distribution,Anisotropic
! <Zone Air Solution Algorithm>, Algorithm {ThirdOrderBackwardDifference | AnalyticalSolution | EulerMethod}, Space Heat Balance Sizing, Space Heat Balance Simulation
 Zone Air Solution Algorithm, ThirdOrderBackwardDifference, No, No
! <Zone Air Carbon Dioxide Balance Simulation>, Simulation {Yes/No}, Carbon Dioxide Concentration
 Zone Air Carbon Dioxide Balance Simulation, No,N/A
! <Zone Air Generic Contaminant Balance Simulation>, Simulation {Yes/No}, Generic Contaminant Concentration
 Zone Air Generic Contaminant Balance Simulation, No,N/A
! <Zone Air Mass Flow Balance Simulation>, Enforce Mass Balance, Adjust Zone Mixing and Return {AdjustMixingOnly | AdjustReturnOnly | AdjustMixingThenReturn | AdjustReturnThenMixing | None}, Adjust Zone Infiltration {AddInfiltration | AdjustInfiltration | None}, Infiltration Zones {MixingSourceZonesOnly | AllZones}
 Zone Air Mass Flow Balance Simulation, No,N/A,N/A,N/A
! <HVACSystemRootFindingAlgorithm>, Value {RegulaFalsi | Bisection | BisectionThenRegulaFalsi | RegulaFalsiThenBisection}
 HVACSystemRootFindingAlgorithm, RegulaFalsi
! <Environment:Site Atmospheric Variation>,Wind Speed Profile Exponent {},Wind Speed Profile Boundary Layer Thickness {m},Air Temperature Gradient Coefficient {K/m}
Environment:Site Atmospheric Variation,0.330,460.000,6.500000E-003
! <Surface Geometry>,Starting Corner,Vertex Input Direction,Coordinate System,Daylight Reference Point Coordinate System,Rectangular (Simple) Surface Coordinate System
 Surface Geometry,UpperLeftCorner,Counterclockwise,RelativeCoordinateSystem,RelativeCoordinateSystem,RelativeToZoneOrigin
! <Surface Heat Transfer Algorithm>, Value {CTF - ConductionTransferFunction | EMPD - MoisturePenetrationDepthConductionTransferFunction | CondFD - ConductionFiniteDifference | HAMT - CombinedHeatAndMoistureFiniteElement} - Description,Inside Surface Max Temperature Limit{C}, Surface Convection Coefficient Lower Limit {W/m2-K}, Surface Convection Coefficient Upper Limit {W/m2-K}
Surface Heat Transfer Algorithm, CTF - ConductionTransferFunction,200,0.10,1000.0
! <Shading Summary>, Number of Fixed Detached Shades, Number of Building Detached Shades, Number of Attached Shades
 Shading Summary,0,0,0
! <Zone Summary>, Number of Zones, Number of Zone Surfaces, Number of SubSurfaces
 Zone Summary,9,66,12
! <Zone Information>,Zone Name,North Axis {deg},Origin X-Coordinate {m},Origin Y-Coordinate {m},Origin Z-Coordinate {m},Centroid X-Coordinate {m},Centroid Y-Coordinate {m},Centroid Z-Coordinate {m},Type,Zone Multiplier,Zone List Multiplier,Minimum X {m},Maximum X {m},Minimum Y {m},Maximum Y {m},Minimum Z {m},Maximum Z {m},Ceiling Height {m},Volume {m3},Zone Inside Convection Algorithm {Simple-Detailed-CeilingDiffuser-TrombeWall},Zone Outside Convection Algorithm {Simple-Detailed-Tarp-MoWitt-DOE-2-BLAST}, Floor Area {m2},Exterior Gross Wall Area {m2},Exterior Net Wall Area {m2},Exterior Window Area {m2}, Number of Surfaces, Number of SubSurfaces, Number of Shading SubSurfaces,  Part of Total Building Area
 Zone Information, ZONE OFFICE WHOLEBUILDING - MD OFFICE A  - STORY GROUND,0.0,-21.65,-17.48,0.00,1.72E-014,-15.20,4.57,1,1,1,-21.65,21.65,-17.48,-12.91,0.00,9.14,9.14,1810.41,TARP,TARP,197.99,395.98,316.78,79.20,6,1,0,Yes
 Zone Information, ZONE OFFICE WHOLEBUILDING - MD OFFICE A END_A - STORY GROUND,0.0,-26.22,-17.48,0.00,-23.94,-15.20,4.57,1,1,1,-26.22,-21.65,-17.48,-12.91,0.00,9.14,9.14,191.14,TARP,TARP,20.90,83.61,66.89,16.72,6,2,0,Yes
 Zone Information, ZONE OFFICE WHOLEBUILDING - MD OFFICE A END_B - STORY GROUND,0.0,21.65,-17.48,0.00,23.94,-15.20,4.57,1,1,1,21.65,26.22,-17.48,-12.91,0.00,9.14,9.14,191.14,TARP,TARP,20.90,83.61,66.89,16.72,6,2,0,Yes
 Zone Information, ZONE OFFICE WHOLEBUILDING - MD OFFICE B  - STORY GROUND,0.0,-21.65,-12.91,0.00,1.75E-014,1.37E-014,4.57,1,1,1,-21.65,21.65,-12.91,12.91,0.00,9.14,9.14,10224.84,TARP,TARP,1118.20,0.00,0.00,0.00,6,0,0,Yes
 Zone Information, ZONE OFFICE WHOLEBUILDING - MD OFFICE B END_A - STORY GROUND,0.0,-26.22,-12.91,0.00,-23.94,1.36E-014,4.57,1,1,1,-26.22,-21.65,-12.91,12.91,0.00,9.14,9.14,1079.51,TARP,TARP,118.06,236.11,188.89,47.22,6,1,0,Yes
 Zone Information, ZONE OFFICE WHOLEBUILDING - MD OFFICE B END_B - STORY GROUND,0.0,21.65,-12.91,0.00,23.94,1.37E-014,4.57,1,1,1,21.65,26.22,-12.91,12.91,0.00,9.14,9.14,1079.51,TARP,TARP,118.06,236.11,188.89,47.22,6,1,0,Yes
 Zone Information, ZONE OFFICE WHOLEBUILDING - MD OFFICE C  - STORY GROUND,0.0,-21.65,12.91,0.00,1.81E-014,15.20,4.57,1,1,1,-21.65,21.65,12.91,17.48,0.00,9.14,9.14,1810.41,TARP,TARP,197.99,395.98,316.78,79.20,6,1,0,Yes
 Zone Information, ZONE OFFICE WHOLEBUILDING - MD OFFICE C END_A - STORY GROUND,0.0,-26.22,12.91,0.00,-23.94,15.20,4.57,1,1,1,-26.22,-21.65,12.91,17.48,0.00,9.14,9.14,191.14,TARP,TARP,20.90,83.61,66.89,16.72,6,2,0,Yes
 Zone Information, ZONE OFFICE WHOLEBUILDING - MD OFFICE C END_B - STORY GROUND,0.0,21.65,12.91,0.00,23.94,15.20,4.57,1,1,1,21.65,26.22,12.91,17.48,0.00,9.14,9.14,191.14,TARP,TARP,20.90,83.61,66.89,16.72,6,2,0,Yes
! <Zone Internal Gains Nominal>,Zone Name, Floor Area {m2},# Occupants,Area per Occupant {m2/person},Occupant per Area {person/m2},Interior Lighting {W/m2},Electric Load {W/m2},Gas Load {W/m2},Other Load {W/m2},Hot Water Eq {W/m2},Steam Equipment {W/m2},Sum Loads per Area {W/m2},Outdoor Controlled Baseboard Heat
 Zone Internal Gains Nominal, ZONE OFFICE WHOLEBUILDING - MD OFFICE A  - STORY GROUND,197.99,10.7,18.581,5.382E-002,6.889,8.073,0.000,0.000,0.000,0.000,14.962,No
 Zone Internal Gains Nominal, ZONE OFFICE WHOLEBUILDING - MD OFFICE A END_A - STORY GROUND,20.90,1.1,18.581,5.382E-002,6.889,8.073,0.000,0.000,0.000,0.000,14.962,No
 Zone Internal Gains Nominal, ZONE OFFICE WHOLEBUILDING - MD OFFICE A END_B - STORY GROUND,20.90,1.1,18.581,5.382E-002,6.889,8.073,0.000,0.000,0.000,0.000,14.962,No
 Zone Internal Gains Nominal, ZONE OFFICE WHOLEBUILDING - MD OFFICE B  - STORY GROUND,1118.20,60.2,18.581,5.382E-002,6.889,8.073,0.000,0.000,0.000,0.000,14.962,No
 Zone Internal Gains Nominal, ZONE OFFICE WHOLEBUILDING - MD OFFICE B END_A - STORY GROUND,118.06,6.4,18.581,5.382E-002,6.889,8.073,0.000,0.000,0.000,0.000,14.962,No
 Zone Internal Gains Nominal, ZONE OFFICE WHOLEBUILDING - MD OFFICE B END_B - STORY GROUND,118.06,6.4,18.581,5.382E-002,6.889,8.073,0.000,0.000,0.000,0.000,14.962,No
 Zone Internal Gains Nominal, ZONE OFFICE WHOLEBUILDING - MD OFFICE C  - STORY GROUND,197.99,10.7,18.581,5.382E-002,6.889,8.073,0.000,0.000,0.000,0.000,14.962,No
 Zone Internal Gains Nominal, ZONE OFFICE WHOLEBUILDING - MD OFFICE C END_A - STORY GROUND,20.90,1.1,18.581,5.382E-002,6.889,8.073,0.000,0.000,0.000,0.000,14.962,No
 Zone Internal Gains Nominal, ZONE OFFICE WHOLEBUILDING - MD OFFICE C END_B - STORY GROUND,20.90,1.1,18.581,5.382E-002,6.889,8.073,0.000,0.000,0.000,0.000,14.962,No
! <People Internal Gains Nominal>,Name,Schedule Name,Zone Name,Zone Floor Area {m2},# Zone Occupants,Number of People {},People/Floor Area {person/m2},Floor Area per person {m2/person},Fraction Radiant,Fraction Convected,Sensible Fraction Calculation,Activity level,ASHRAE 55 Warnings,Carbon Dioxide Generation Rate,Nominal Minimum Number of People,Nominal Maximum Number of People
 People Internal Gains Nominal, OFFICE WHOLEBUILDING - MD OFFICE B END_A - STORY GROUND OFFICE WHOLEBUILDING - MD OFFICE PEOPLE,OFFICEMEDIUM BLDG_OCC_SCH,ZONE OFFICE WHOLEBUILDING - MD OFFICE B END_A - STORY GROUND,118.06,6.4,6.4,5.382E-002,18.581,0.300,0.700,AutoCalculate,OFFICEMEDIUM ACTIVITY_SCH,No,3.8200E-008,0,6
 People Internal Gains Nominal, OFFICE WHOLEBUILDING - MD OFFICE C END_A - STORY GROUND OFFICE WHOLEBUILDING - MD OFFICE PEOPLE,OFFICEMEDIUM BLDG_OCC_SCH,ZONE OFFICE WHOLEBUILDING - MD OFFICE C END_A - STORY GROUND,20.90,1.1,1.1,5.382E-002,18.581,0.300,0.700,AutoCalculate,OFFICEMEDIUM ACTIVITY_SCH,No,3.8200E-008,0,1
 People Internal Gains Nominal, OFFICE WHOLEBUILDING - MD OFFICE A  - STORY GROUND OFFICE WHOLEBUILDING - MD OFFICE PEOPLE,OFFICEMEDIUM BLDG_OCC_SCH,ZONE OFFICE WHOLEBUILDING - MD OFFICE A  - STORY GROUND,197.99,10.7,10.7,5.382E-002,18.581,0.300,0.700,AutoCalculate,OFFICEMEDIUM ACTIVITY_SCH,No,3.8200E-008,0,11
 People Internal Gains Nominal, OFFICE WHOLEBUILDING - MD OFFICE B  - STORY GROUND OFFICE WHOLEBUILDING - MD OFFICE PEOPLE,OFFICEMEDIUM BLDG_OCC_SCH,ZONE OFFICE WHOLEBUILDING - MD OFFICE B  - STORY GROUND,1118.20,60.2,60.2,5.382E-002,18.581,0.300,0.700,AutoCalculate,OFFICEMEDIUM ACTIVITY_SCH,No,3.8200E-008,0,60
 People Internal Gains Nominal, OFFICE WHOLEBUILDING - MD OFFICE C END_B - STORY GROUND OFFICE WHOLEBUILDING - MD OFFICE PEOPLE,OFFICEMEDIUM BLDG_OCC_SCH,ZONE OFFICE WHOLEBUILDING - MD OFFICE C END_B - STORY GROUND,20.90,1.1,1.1,5.382E-002,18.581,0.300,0.700,AutoCalculate,OFFICEMEDIUM ACTIVITY_SCH,No,3.8200E-008,0,1
 People Internal Gains Nominal, OFFICE WHOLEBUILDING - MD OFFICE C  - STORY GROUND OFFICE WHOLEBUILDING - MD OFFICE PEOPLE,OFFICEMEDIUM BLDG_OCC_SCH,ZONE OFFICE WHOLEBUILDING - MD OFFICE C  - STORY GROUND,197.99,10.7,10.7,5.382E-002,18.581,0.300,0.700,AutoCalculate,OFFICEMEDIUM ACTIVITY_SCH,No,3.8200E-008,0,11
 People Internal Gains Nominal, OFFICE WHOLEBUILDING - MD OFFICE A END_A - STORY GROUND OFFICE WHOLEBUILDING - MD OFFICE PEOPLE,OFFICEMEDIUM BLDG_OCC_SCH,ZONE OFFICE WHOLEBUILDING - MD OFFICE A END_A - STORY GROUND,20.90,1.1,1.1,5.382E-002,18.581,0.300,0.700,AutoCalculate,OFFICEMEDIUM ACTIVITY_SCH,No,3.8200E-008,0,1
 People Internal Gains Nominal, OFFICE WHOLEBUILDING - MD OFFICE A END_B - STORY GROUND OFFICE WHOLEBUILDING - MD OFFICE PEOPLE,OFFICEMEDIUM BLDG_OCC_SCH,ZONE OFFICE WHOLEBUILDING - MD OFFICE A END_B - STORY GROUND,20.90,1.1,1.1,5.382E-002,18.581,0.300,0.700,AutoCalculate,OFFICEMEDIUM ACTIVITY_SCH,No,3.8200E-008,0,1
 People Internal Gains Nominal, OFFICE WHOLEBUILDING - MD OFFICE B END_B - STORY GROUND OFFICE WHOLEBUILDING - MD OFFICE PEOPLE,OFFICEMEDIUM BLDG_OCC_SCH,ZONE OFFICE WHOLEBUILDING - MD OFFICE B END_B - STORY GROUND,118.06,6.4,6.4,5.382E-002,18.581,0.300,0.700,AutoCalculate,OFFICEMEDIUM ACTIVITY_SCH,No,3.8200E-008,0,6
! <Lights Internal Gains Nominal>,Name,Schedule Name,Zone Name,Zone Floor Area {m2},# Zone Occupants,Lighting Level {W},Lights/Floor Area {W/m2},Lights per person {W/person},Fraction Return Air,Fraction Radiant,Fraction Short Wave,Fraction Convected,Fraction Replaceable,End-Use Category,Nominal Minimum Lighting Level {W},Nominal Maximum Lighting Level {W}
 Lights Internal Gains Nominal, OFFICE WHOLEBUILDING - MD OFFICE B END_A - STORY GROUND OFFICE WHOLEBUILDING - MD OFFICE LIGHTS,OFFICEMEDIUM BLDG_LIGHT_SCH_2013,ZONE OFFICE WHOLEBUILDING - MD OFFICE B END_A - STORY GROUND,118.06,6.4,813.284,6.889,128.000,0.000,0.700,0.200,0.100,1.000,General,0.000,813.284
 Lights Internal Gains Nominal, OFFICE WHOLEBUILDING - MD OFFICE C END_A - STORY GROUND OFFICE WHOLEBUILDING - MD OFFICE LIGHTS,OFFICEMEDIUM BLDG_LIGHT_SCH_2013,ZONE OFFICE WHOLEBUILDING - MD OFFICE C END_A - STORY GROUND,20.90,1.1,144.000,6.889,128.000,0.000,0.700,0.200,0.100,1.000,General,0.000,144.000
 Lights Internal Gains Nominal, OFFICE WHOLEBUILDING - MD OFFICE A  - STORY GROUND OFFICE WHOLEBUILDING - MD OFFICE LIGHTS,OFFICEMEDIUM BLDG_LIGHT_SCH_2013,ZONE OFFICE WHOLEBUILDING - MD OFFICE A  - STORY GROUND,197.99,10.7,1363.925,6.889,128.000,0.000,0.700,0.200,0.100,1.000,General,0.000,1363.925
 Lights Internal Gains Nominal, OFFICE WHOLEBUILDING - MD OFFICE B  - STORY GROUND OFFICE WHOLEBUILDING - MD OFFICE LIGHTS,OFFICEMEDIUM BLDG_LIGHT_SCH_2013,ZONE OFFICE WHOLEBUILDING - MD OFFICE B  - STORY GROUND,1118.20,60.2,7703.182,6.889,128.000,0.000,0.700,0.200,0.100,1.000,General,0.000,7703.182
 Lights Internal Gains Nominal, OFFICE WHOLEBUILDING - MD OFFICE C END_B - STORY GROUND OFFICE WHOLEBUILDING - MD OFFICE LIGHTS,OFFICEMEDIUM BLDG_LIGHT_SCH_2013,ZONE OFFICE WHOLEBUILDING - MD OFFICE C END_B - STORY GROUND,20.90,1.1,144.000,6.889,128.000,0.000,0.700,0.200,0.100,1.000,General,0.000,144.000
 Lights Internal Gains Nominal, OFFICE WHOLEBUILDING - MD OFFICE C  - STORY GROUND OFFICE WHOLEBUILDING - MD OFFICE LIGHTS,OFFICEMEDIUM BLDG_LIGHT_SCH_2013,ZONE OFFICE WHOLEBUILDING - MD OFFICE C  - STORY GROUND,197.99,10.7,1363.925,6.889,128.000,0.000,0.700,0.200,0.100,1.000,General,0.000,1363.925
 Lights Internal Gains Nominal, OFFICE WHOLEBUILDING - MD OFFICE A END_A - STORY GROUND OFFICE WHOLEBUILDING - MD OFFICE LIGHTS,OFFICEMEDIUM BLDG_LIGHT_SCH_2013,ZONE OFFICE WHOLEBUILDING - MD OFFICE A END_A - STORY GROUND,20.90,1.1,144.000,6.889,128.000,0.000,0.700,0.200,0.100,1.000,General,0.000,144.000
 Lights Internal Gains Nominal, OFFICE WHOLEBUILDING - MD OFFICE A END_B - STORY GROUND OFFICE WHOLEBUILDING - MD OFFICE LIGHTS,OFFICEMEDIUM BLDG_LIGHT_SCH_2013,ZONE OFFICE WHOLEBUILDING - MD OFFICE A END_B - STORY GROUND,20.90,1.1,144.000,6.889,128.000,0.000,0.700,0.200,0.100,1.000,General,0.000,144.000
 Lights Internal Gains Nominal, OFFICE WHOLEBUILDING - MD OFFICE B END_B - STORY GROUND OFFICE WHOLEBUILDING - MD OFFICE LIGHTS,OFFICEMEDIUM BLDG_LIGHT_SCH_2013,ZONE OFFICE WHOLEBUILDING - MD OFFICE B END_B - STORY GROUND,118.06,6.4,813.284,6.889,128.000,0.000,0.700,0.200,0.100,1.000,General,0.000,813.284
! <ElectricEquipment Internal Gains Nominal>,Name,Schedule Name,Zone Name,Zone Floor Area {m2},# Zone Occupants,Equipment Level {W},Equipment/Floor Area {W/m2},Equipment per person {W/person},Fraction Latent,Fraction Radiant,Fraction Lost,Fraction Convected,End-Use SubCategory,Nominal Minimum Equipment Level {W},Nominal Maximum Equipment Level {W}
 ElectricEquipment Internal Gains Nominal, OFFICE WHOLEBUILDING - MD OFFICE B END_A - STORY GROUND OFFICE WHOLEBUILDING - MD OFFICE ELEC EQUIP,OFFICEMEDIUM BLDG_EQUIP_SCH_2013,ZONE OFFICE WHOLEBUILDING - MD OFFICE B END_A - STORY GROUND,118.06,6.4,953.067,8.073,150.000,0.000,0.500,0.000,0.500,General,0.000,953.067
 ElectricEquipment Internal Gains Nominal, OFFICE WHOLEBUILDING - MD OFFICE C END_A - STORY GROUND OFFICE WHOLEBUILDING - MD OFFICE ELEC EQUIP,OFFICEMEDIUM BLDG_EQUIP_SCH_2013,ZONE OFFICE WHOLEBUILDING - MD OFFICE C END_A - STORY GROUND,20.90,1.1,168.750,8.073,150.000,0.000,0.500,0.000,0.500,General,0.000,168.750
 ElectricEquipment Internal Gains Nominal, OFFICE WHOLEBUILDING - MD OFFICE A  - STORY GROUND OFFICE WHOLEBUILDING - MD OFFICE ELEC EQUIP,OFFICEMEDIUM BLDG_EQUIP_SCH_2013,ZONE OFFICE WHOLEBUILDING - MD OFFICE A  - STORY GROUND,197.99,10.7,1598.350,8.073,150.000,0.000,0.500,0.000,0.500,General,0.000,1598.350
 ElectricEquipment Internal Gains Nominal, OFFICE WHOLEBUILDING - MD OFFICE B  - STORY GROUND OFFICE WHOLEBUILDING - MD OFFICE ELEC EQUIP,OFFICEMEDIUM BLDG_EQUIP_SCH_2013,ZONE OFFICE WHOLEBUILDING - MD OFFICE B  - STORY GROUND,1118.20,60.2,9027.166,8.073,150.000,0.000,0.500,0.000,0.500,General,0.000,9027.166
 ElectricEquipment Internal Gains Nominal, OFFICE WHOLEBUILDING - MD OFFICE C END_B - STORY GROUND OFFICE WHOLEBUILDING - MD OFFICE ELEC EQUIP,OFFICEMEDIUM BLDG_EQUIP_SCH_2013,ZONE OFFICE WHOLEBUILDING - MD OFFICE C END_B - STORY GROUND,20.90,1.1,168.750,8.073,150.000,0.000,0.500,0.000,0.500,General,0.000,168.750
 ElectricEquipment Internal Gains Nominal, OFFICE WHOLEBUILDING - MD OFFICE C  - STORY GROUND OFFICE WHOLEBUILDING - MD OFFICE ELEC EQUIP,OFFICEMEDIUM BLDG_EQUIP_SCH_2013,ZONE OFFICE WHOLEBUILDING - MD OFFICE C  - STORY GROUND,197.99,10.7,1598.350,8.073,150.000,0.000,0.500,0.000,0.500,General,0.000,1598.350
 ElectricEquipment Internal Gains Nominal, OFFICE WHOLEBUILDING - MD OFFICE A END_A - STORY GROUND OFFICE WHOLEBUILDING - MD OFFICE ELEC EQUIP,OFFICEMEDIUM BLDG_EQUIP_SCH_2013,ZONE OFFICE WHOLEBUILDING - MD OFFICE A END_A - STORY GROUND,20.90,1.1,168.750,8.073,150.000,0.000,0.500,0.000,0.500,General,0.000,168.750
 ElectricEquipment Internal Gains Nominal, OFFICE WHOLEBUILDING - MD OFFICE A END_B - STORY GROUND OFFICE WHOLEBUILDING - MD OFFICE ELEC EQUIP,OFFICEMEDIUM BLDG_EQUIP_SCH_2013,ZONE OFFICE WHOLEBUILDING - MD OFFICE A END_B - STORY GROUND,20.90,1.1,168.750,8.073,150.000,0.000,0.500,0.000,0.500,General,0.000,168.750
 ElectricEquipment Internal Gains Nominal, OFFICE WHOLEBUILDING - MD OFFICE B END_B - STORY GROUND OFFICE WHOLEBUILDING - MD OFFICE ELEC EQUIP,OFFICEMEDIUM BLDG_EQUIP_SCH_2013,ZONE OFFICE WHOLEBUILDING - MD OFFICE B END_B - STORY GROUND,118.06,6.4,953.067,8.073,150.000,0.000,0.500,0.000,0.500,General,0.000,953.067
! <Shadowing/Sun Position Calculations Annual Simulations>, Shading Calculation Method, Shading Calculation Update Frequency Method, Shading Calculation Update Frequency {days}, Maximum Figures in Shadow Overlap Calculations {}, Polygon Clipping Algorithm, Pixel Counting Resolution, Sky Diffuse Modeling Algorithm, Output External Shading Calculation Results, Disable Self-Shading Within Shading Zone Groups, Disable Self-Shading From Shading Zone Groups to Other Zones
Shadowing/Sun Position Calculations Annual Simulations,PolygonClipping,Periodic,30,15000,SutherlandHodgman,512,SimpleSkyDiffuseModeling,No,No,No
! <Enclosure/Window Adjacency Daylighting Counts>, Enclosure Name, Number of Exterior Windows, Number of Exterior Windows in Adjacent Enclosures
Enclosure/Window Adjacency Daylighting Counts, OFFICE WHOLEBUILDING - MD OFFICE A  - STORY GROUND,1,0
Enclosure/Window Adjacency Daylighting Counts, OFFICE WHOLEBUILDING - MD OFFICE B END_A - STORY GROUND,1,0
Enclosure/Window Adjacency Daylighting Counts, OFFICE WHOLEBUILDING - MD OFFICE B END_B - STORY GROUND,1,0
Enclosure/Window Adjacency Daylighting Counts, OFFICE WHOLEBUILDING - MD OFFICE C  - STORY GROUND,1,0
! <Enclosure/Window Adjacency Daylighting Matrix>, Enclosure Name, Number of Adjacent Enclosures with Windows,Adjacent Enclosure Names - 1st 100 (max)
Enclosure/Window Adjacency Daylighting Matrix, OFFICE WHOLEBUILDING - MD OFFICE A  - STORY GROUND,0
Enclosure/Window Adjacency Daylighting Matrix, OFFICE WHOLEBUILDING - MD OFFICE B END_A - STORY GROUND,0
Enclosure/Window Adjacency Daylighting Matrix, OFFICE WHOLEBUILDING - MD OFFICE B END_B - STORY GROUND,0
Enclosure/Window Adjacency Daylighting Matrix, OFFICE WHOLEBUILDING - MD OFFICE C  - STORY GROUND,0
! <Water Heater Information>,Type,Name,Volume {m3},Maximum Capacity {W},Standard Rated Recovery Efficiency, Standard Rated Energy Factor
! <ZoneInfiltration Airflow Stats Nominal>,Name,Schedule Name,Zone Name, Zone Floor Area {m2}, # Zone Occupants,Design Volume Flow Rate {m3/s},Volume Flow Rate/Floor Area {m3/s-m2},Volume Flow Rate/Exterior Surface Area {m3/s-m2},ACH - Air Changes per Hour,Equation A - Constant Term Coefficient {},Equation B - Temperature Term Coefficient {1/C},Equation C - Velocity Term Coefficient {s/m}, Equation D - Velocity Squared Term Coefficient {s2/m2}
 ZoneInfiltration Airflow Stats Nominal, OFFICE WHOLEBUILDING - MD OFFICE A  - STORY GROUND INFILTRATION,ALWAYS ON DISCRETE,ZONE OFFICE WHOLEBUILDING - MD OFFICE A  - STORY GROUND,197.99,10.7,0.226,1.139E-003,3.797E-004,0.448,0.000,0.000,0.224,0.000
 ZoneInfiltration Airflow Stats Nominal, OFFICE WHOLEBUILDING - MD OFFICE A END_A - STORY GROUND INFILTRATION,ALWAYS ON DISCRETE,ZONE OFFICE WHOLEBUILDING - MD OFFICE A END_A - STORY GROUND,20.90,1.1,4.762E-002,2.278E-003,4.557E-004,0.897,0.000,0.000,0.224,0.000
 ZoneInfiltration Airflow Stats Nominal, OFFICE WHOLEBUILDING - MD OFFICE A END_B - STORY GROUND INFILTRATION,ALWAYS ON DISCRETE,ZONE OFFICE WHOLEBUILDING - MD OFFICE A END_B - STORY GROUND,20.90,1.1,4.762E-002,2.278E-003,4.557E-004,0.897,0.000,0.000,0.224,0.000
 ZoneInfiltration Airflow Stats Nominal, OFFICE WHOLEBUILDING - MD OFFICE B END_A - STORY GROUND INFILTRATION,ALWAYS ON DISCRETE,ZONE OFFICE WHOLEBUILDING - MD OFFICE B END_A - STORY GROUND,118.06,6.4,0.134,1.139E-003,3.797E-004,0.448,0.000,0.000,0.224,0.000
 ZoneInfiltration Airflow Stats Nominal, OFFICE WHOLEBUILDING - MD OFFICE B END_B - STORY GROUND INFILTRATION,ALWAYS ON DISCRETE,ZONE OFFICE WHOLEBUILDING - MD OFFICE B END_B - STORY GROUND,118.06,6.4,0.134,1.139E-003,3.797E-004,0.448,0.000,0.000,0.224,0.000
 ZoneInfiltration Airflow Stats Nominal, OFFICE WHOLEBUILDING - MD OFFICE C  - STORY GROUND INFILTRATION,ALWAYS ON DISCRETE,ZONE OFFICE WHOLEBUILDING - MD OFFICE C  - STORY GROUND,197.99,10.7,0.226,1.139E-003,3.797E-004,0.448,0.000,0.000,0.224,0.000
 ZoneInfiltration Airflow Stats Nominal, OFFICE WHOLEBUILDING - MD OFFICE C END_A - STORY GROUND INFILTRATION,ALWAYS ON DISCRETE,ZONE OFFICE WHOLEBUILDING - MD OFFICE C END_A - STORY GROUND,20.90,1.1,4.762E-002,2.278E-003,4.557E-004,0.897,0.000,0.000,0.224,0.000
 ZoneInfiltration Airflow Stats Nominal, OFFICE WHOLEBUILDING - MD OFFICE C END_B - STORY GROUND INFILTRATION,ALWAYS ON DISCRETE,ZONE OFFICE WHOLEBUILDING - MD OFFICE C END_B - STORY GROUND,20.90,1.1,4.762E-002,2.278E-003,4.557E-004,0.897,0.000,0.000,0.224,0.000
! <AirFlow Model>, Simple
 AirFlow Model, Simple
! <RoomAir Model>, Zone Name, Mixing/Mundt/UCSDDV/UCSDCV/UCSDUFI/UCSDUFE/User Defined
RoomAir Model,ZONE OFFICE WHOLEBUILDING - MD OFFICE A  - STORY GROUND,Mixing/Well-Stirred
RoomAir Model,ZONE OFFICE WHOLEBUILDING - MD OFFICE A END_A - STORY GROUND,Mixing/Well-Stirred
RoomAir Model,ZONE OFFICE WHOLEBUILDING - MD OFFICE A END_B - STORY GROUND,Mixing/Well-Stirred
RoomAir Model,ZONE OFFICE WHOLEBUILDING - MD OFFICE B  - STORY GROUND,Mixing/Well-Stirred
RoomAir Model,ZONE OFFICE WHOLEBUILDING - MD OFFICE B END_A - STORY GROUND,Mixing/Well-Stirred
RoomAir Model,ZONE OFFICE WHOLEBUILDING - MD OFFICE B END_B - STORY GROUND,Mixing/Well-Stirred
RoomAir Model,ZONE OFFICE WHOLEBUILDING - MD OFFICE C  - STORY GROUND,Mixing/Well-Stirred
RoomAir Model,ZONE OFFICE WHOLEBUILDING - MD OFFICE C END_A - STORY GROUND,Mixing/Well-Stirred
RoomAir Model,ZONE OFFICE WHOLEBUILDING - MD OFFICE C END_B - STORY GROUND,Mixing/Well-Stirred
! <AirflowNetwork Model:Control>, No Multizone or Distribution/Multizone with Distribution/Multizone without Distribution/Multizone with Distribution only during Fan Operation
AirflowNetwork Model:Control,NoMultizoneOrDistribution
! <Zone Volume Capacitance Multiplier>, Sensible Heat Capacity Multiplier, Moisture Capacity Multiplier, Carbon Dioxide Capacity Multiplier, Generic Contaminant Capacity Multiplier
Zone Volume Capacitance Multiplier,   1.000 ,   1.000,   1.000,   1.000
! <Load Timesteps in Zone Design Calculation Averaging Window>, Value
 Load Timesteps in Zone Design Calculation Averaging Window,    6
! <Heating Sizing Factor Information>, Sizing Factor ID, Value
 Heating Sizing Factor Information, Global,   1.2500    
 Heating Sizing Factor Information, Zone ZONE OFFICE WHOLEBUILDING - MD OFFICE A  - STORY GROUND,   1.2500    
 Heating Sizing Factor Information, Zone ZONE OFFICE WHOLEBUILDING - MD OFFICE A END_A - STORY GROUND,   1.2500    
 Heating Sizing Factor Information, Zone ZONE OFFICE WHOLEBUILDING - MD OFFICE A END_B - STORY GROUND,   1.2500    
 Heating Sizing Factor Information, Zone ZONE OFFICE WHOLEBUILDING - MD OFFICE B  - STORY GROUND,   1.2500    
 Heating Sizing Factor Information, Zone ZONE OFFICE WHOLEBUILDING - MD OFFICE B END_A - STORY GROUND,   1.2500    
 Heating Sizing Factor Information, Zone ZONE OFFICE WHOLEBUILDING - MD OFFICE B END_B - STORY GROUND,   1.2500    
 Heating Sizing Factor Information, Zone ZONE OFFICE WHOLEBUILDING - MD OFFICE C  - STORY GROUND,   1.2500    
 Heating Sizing Factor Information, Zone ZONE OFFICE WHOLEBUILDING - MD OFFICE C END_A - STORY GROUND,   1.2500    
 Heating Sizing Factor Information, Zone ZONE OFFICE WHOLEBUILDING - MD OFFICE C END_B - STORY GROUND,   1.2500    
! <Cooling Sizing Factor Information>, Sizing Factor ID, Value
 Cooling Sizing Factor Information, Global,   1.1500    
 Cooling Sizing Factor Information, Zone ZONE OFFICE WHOLEBUILDING - MD OFFICE A  - STORY GROUND,   1.1500    
 Cooling Sizing Factor Information, Zone ZONE OFFICE WHOLEBUILDING - MD OFFICE A END_A - STORY GROUND,   1.1500    
 Cooling Sizing Factor Information, Zone ZONE OFFICE WHOLEBUILDING - MD OFFICE A END_B - STORY GROUND,   1.1500    
 Cooling Sizing Factor Information, Zone ZONE OFFICE WHOLEBUILDING - MD OFFICE B  - STORY GROUND,   1.1500    
 Cooling Sizing Factor Information, Zone ZONE OFFICE WHOLEBUILDING - MD OFFICE B END_A - STORY GROUND,   1.1500    
 Cooling Sizing Factor Information, Zone ZONE OFFICE WHOLEBUILDING - MD OFFICE B END_B - STORY GROUND,   1.1500    
 Cooling Sizing Factor Information, Zone ZONE OFFICE WHOLEBUILDING - MD OFFICE C  - STORY GROUND,   1.1500    
 Cooling Sizing Factor Information, Zone ZONE OFFICE WHOLEBUILDING - MD OFFICE C END_A - STORY GROUND,   1.1500    
 Cooling Sizing Factor Information, Zone ZONE OFFICE WHOLEBUILDING - MD OFFICE C END_B - STORY GROUND,   1.1500    
! <Sky Daylight Factors>, Sky Type, MonthAndDay, Daylighting Control Name, Enclosure Name, Window Name, Reference Point, Daylight Factor
 Sky Daylight Factors,Clear Sky,08/21,ZONE OFFICE WHOLEBUILDING - MD OFFICE A  - STORY GROUND DAYLIGHTINGCONTROLS,OFFICE WHOLEBUILDING - MD OFFICE A  - STORY GROUND,SUB SURFACE 10,OFFICE WHOLEBUILDING - MD OFFICE A  - STORY GROUND DAYLT SENSOR 1,9.0026E-002
 Sky Daylight Factors,Clear Sky,08/21,ZONE OFFICE WHOLEBUILDING - MD OFFICE A  - STORY GROUND DAYLIGHTINGCONTROLS,OFFICE WHOLEBUILDING - MD OFFICE A  - STORY GROUND,SUB SURFACE 10,OFFICE WHOLEBUILDING - MD OFFICE A  - STORY GROUND DAYLT SENSOR 2,4.0196E-002
 Sky Daylight Factors,Clear Turbid Sky,08/21,ZONE OFFICE WHOLEBUILDING - MD OFFICE A  - STORY GROUND DAYLIGHTINGCONTROLS,OFFICE WHOLEBUILDING - MD OFFICE A  - STORY GROUND,SUB SURFACE 10,OFFICE WHOLEBUILDING - MD OFFICE A  - STORY GROUND DAYLT SENSOR 1,9.7220E-002
 Sky Daylight Factors,Clear Turbid Sky,08/21,ZONE OFFICE WHOLEBUILDING - MD OFFICE A  - STORY GROUND DAYLIGHTINGCONTROLS,OFFICE WHOLEBUILDING - MD OFFICE A  - STORY GROUND,SUB SURFACE 10,OFFICE WHOLEBUILDING - MD OFFICE A  - STORY GROUND DAYLT SENSOR 2,4.1606E-002
 Sky Daylight Factors,Intermediate Sky,08/21,ZONE OFFICE WHOLEBUILDING - MD OFFICE A  - STORY GROUND DAYLIGHTINGCONTROLS,OFFICE WHOLEBUILDING - MD OFFICE A  - STORY GROUND,SUB SURFACE 10,OFFICE WHOLEBUILDING - MD OFFICE A  - STORY GROUND DAYLT SENSOR 1,7.3094E-002
 Sky Daylight Factors,Intermediate Sky,08/21,ZONE OFFICE WHOLEBUILDING - MD OFFICE A  - STORY GROUND DAYLIGHTINGCONTROLS,OFFICE WHOLEBUILDING - MD OFFICE A  - STORY GROUND,SUB SURFACE 10,OFFICE WHOLEBUILDING - MD OFFICE A  - STORY GROUND DAYLT SENSOR 2,3.0246E-002
 Sky Daylight Factors,Overcast Sky,08/21,ZONE OFFICE WHOLEBUILDING - MD OFFICE A  - STORY GROUND DAYLIGHTINGCONTROLS,OFFICE WHOLEBUILDING - MD OFFICE A  - STORY GROUND,SUB SURFACE 10,OFFICE WHOLEBUILDING - MD OFFICE A  - STORY GROUND DAYLT SENSOR 1,3.4090E-002
 Sky Daylight Factors,Overcast Sky,08/21,ZONE OFFICE WHOLEBUILDING - MD OFFICE A  - STORY GROUND DAYLIGHTINGCONTROLS,OFFICE WHOLEBUILDING - MD OFFICE A  - STORY GROUND,SUB SURFACE 10,OFFICE WHOLEBUILDING - MD OFFICE A  - STORY GROUND DAYLT SENSOR 2,1.3917E-002
 Sky Daylight Factors,Clear Sky,08/21,ZONE OFFICE WHOLEBUILDING - MD OFFICE B END_A - STORY GROUND DAYLIGHTINGCONTROLS,OFFICE WHOLEBUILDING - MD OFFICE B END_A - STORY GROUND,SUB SURFACE 3,OFFICE WHOLEBUILDING - MD OFFICE B END_A - STORY GROUND DAYLT SENSOR 1,3.1864E-002
 Sky Daylight Factors,Clear Sky,08/21,ZONE OFFICE WHOLEBUILDING - MD OFFICE B END_A - STORY GROUND DAYLIGHTINGCONTROLS,OFFICE WHOLEBUILDING - MD OFFICE B END_A - STORY GROUND,SUB SURFACE 3,OFFICE WHOLEBUILDING - MD OFFICE B END_A - STORY GROUND DAYLT SENSOR 2,1.7169E-002
 Sky Daylight Factors,Clear Turbid Sky,08/21,ZONE OFFICE WHOLEBUILDING - MD OFFICE B END_A - STORY GROUND DAYLIGHTINGCONTROLS,OFFICE WHOLEBUILDING - MD OFFICE B END_A - STORY GROUND,SUB SURFACE 3,OFFICE WHOLEBUILDING - MD OFFICE B END_A - STORY GROUND DAYLT SENSOR 1,2.6603E-002
 Sky Daylight Factors,Clear Turbid Sky,08/21,ZONE OFFICE WHOLEBUILDING - MD OFFICE B END_A - STORY GROUND DAYLIGHTINGCONTROLS,OFFICE WHOLEBUILDING - MD OFFICE B END_A - STORY GROUND,SUB SURFACE 3,OFFICE WHOLEBUILDING - MD OFFICE B END_A - STORY GROUND DAYLT SENSOR 2,1.4108E-002
 Sky Daylight Factors,Intermediate Sky,08/21,ZONE OFFICE WHOLEBUILDING - MD OFFICE B END_A - STORY GROUND DAYLIGHTINGCONTROLS,OFFICE WHOLEBUILDING - MD OFFICE B END_A - STORY GROUND,SUB SURFACE 3,OFFICE WHOLEBUILDING - MD OFFICE B END_A - STORY GROUND DAYLT SENSOR 1,2.8383E-002
 Sky Daylight Factors,Intermediate Sky,08/21,ZONE OFFICE WHOLEBUILDING - MD OFFICE B END_A - STORY GROUND DAYLIGHTINGCONTROLS,OFFICE WHOLEBUILDING - MD OFFICE B END_A - STORY GROUND,SUB SURFACE 3,OFFICE WHOLEBUILDING - MD OFFICE B END_A - STORY GROUND DAYLT SENSOR 2,1.2635E-002
 Sky Daylight Factors,Overcast Sky,08/21,ZONE OFFICE WHOLEBUILDING - MD OFFICE B END_A - STORY GROUND DAYLIGHTINGCONTROLS,OFFICE WHOLEBUILDING - MD OFFICE B END_A - STORY GROUND,SUB SURFACE 3,OFFICE WHOLEBUILDING - MD OFFICE B END_A - STORY GROUND DAYLT SENSOR 1,3.3985E-002
 Sky Daylight Factors,Overcast Sky,08/21,ZONE OFFICE WHOLEBUILDING - MD OFFICE B END_A - STORY GROUND DAYLIGHTINGCONTROLS,OFFICE WHOLEBUILDING - MD OFFICE B END_A - STORY GROUND,SUB SURFACE 3,OFFICE WHOLEBUILDING - MD OFFICE B END_A - STORY GROUND DAYLT SENSOR 2,1.3777E-002
 Sky Daylight Factors,Clear Sky,08/21,ZONE OFFICE WHOLEBUILDING - MD OFFICE B END_B - STORY GROUND DAYLIGHTINGCONTROLS,OFFICE WHOLEBUILDING - MD OFFICE B END_B - STORY GROUND,SUB SURFACE 8,OFFICE WHOLEBUILDING - MD OFFICE B END_B - STORY GROUND DAYLT SENSOR 1,5.4527E-002
 Sky Daylight Factors,Clear Sky,08/21,ZONE OFFICE WHOLEBUILDING - MD OFFICE B END_B - STORY GROUND DAYLIGHTINGCONTROLS,OFFICE WHOLEBUILDING - MD OFFICE B END_B - STORY GROUND,SUB SURFACE 8,OFFICE WHOLEBUILDING - MD OFFICE B END_B - STORY GROUND DAYLT SENSOR 2,2.6280E-002
 Sky Daylight Factors,Clear Turbid Sky,08/21,ZONE OFFICE WHOLEBUILDING - MD OFFICE B END_B - STORY GROUND DAYLIGHTINGCONTROLS,OFFICE WHOLEBUILDING - MD OFFICE B END_B - STORY GROUND,SUB SURFACE 8,OFFICE WHOLEBUILDING - MD OFFICE B END_B - STORY GROUND DAYLT SENSOR 1,5.3773E-002
 Sky Daylight Factors,Clear Turbid Sky,08/21,ZONE OFFICE WHOLEBUILDING - MD OFFICE B END_B - STORY GROUND DAYLIGHTINGCONTROLS,OFFICE WHOLEBUILDING - MD OFFICE B END_B - STORY GROUND,SUB SURFACE 8,OFFICE WHOLEBUILDING - MD OFFICE B END_B - STORY GROUND DAYLT SENSOR 2,2.5000E-002
 Sky Daylight Factors,Intermediate Sky,08/21,ZONE OFFICE WHOLEBUILDING - MD OFFICE B END_B - STORY GROUND DAYLIGHTINGCONTROLS,OFFICE WHOLEBUILDING - MD OFFICE B END_B - STORY GROUND,SUB SURFACE 8,OFFICE WHOLEBUILDING - MD OFFICE B END_B - STORY GROUND DAYLT SENSOR 1,5.0296E-002
 Sky Daylight Factors,Intermediate Sky,08/21,ZONE OFFICE WHOLEBUILDING - MD OFFICE B END_B - STORY GROUND DAYLIGHTINGCONTROLS,OFFICE WHOLEBUILDING - MD OFFICE B END_B - STORY GROUND,SUB SURFACE 8,OFFICE WHOLEBUILDING - MD OFFICE B END_B - STORY GROUND DAYLT SENSOR 2,2.1524E-002
 Sky Daylight Factors,Overcast Sky,08/21,ZONE OFFICE WHOLEBUILDING - MD OFFICE B END_B - STORY GROUND DAYLIGHTINGCONTROLS,OFFICE WHOLEBUILDING - MD OFFICE B END_B - STORY GROUND,SUB SURFACE 8,OFFICE WHOLEBUILDING - MD OFFICE B END_B - STORY GROUND DAYLT SENSOR 1,3.3985E-002
 Sky Daylight Factors,Overcast Sky,08/21,ZONE OFFICE WHOLEBUILDING - MD OFFICE B END_B - STORY GROUND DAYLIGHTINGCONTROLS,OFFICE WHOLEBUILDING - MD OFFICE B END_B - STORY GROUND,SUB SURFACE 8,OFFICE WHOLEBUILDING - MD OFFICE B END_B - STORY GROUND DAYLT SENSOR 2,1.3777E-002
 Sky Daylight Factors,Clear Sky,08/21,ZONE OFFICE WHOLEBUILDING - MD OFFICE C  - STORY GROUND DAYLIGHTINGCONTROLS,OFFICE WHOLEBUILDING - MD OFFICE C  - STORY GROUND,SUB SURFACE 9,OFFICE WHOLEBUILDING - MD OFFICE C  - STORY GROUND DAYLT SENSOR 1,2.8495E-002
 Sky Daylight Factors,Clear Sky,08/21,ZONE OFFICE WHOLEBUILDING - MD OFFICE C  - STORY GROUND DAYLIGHTINGCONTROLS,OFFICE WHOLEBUILDING - MD OFFICE C  - STORY GROUND,SUB SURFACE 9,OFFICE WHOLEBUILDING - MD OFFICE C  - STORY GROUND DAYLT SENSOR 2,1.6308E-002
 Sky Daylight Factors,Clear Turbid Sky,08/21,ZONE OFFICE WHOLEBUILDING - MD OFFICE C  - STORY GROUND DAYLIGHTINGCONTROLS,OFFICE WHOLEBUILDING - MD OFFICE C  - STORY GROUND,SUB SURFACE 9,OFFICE WHOLEBUILDING - MD OFFICE C  - STORY GROUND DAYLT SENSOR 1,2.2356E-002
 Sky Daylight Factors,Clear Turbid Sky,08/21,ZONE OFFICE WHOLEBUILDING - MD OFFICE C  - STORY GROUND DAYLIGHTINGCONTROLS,OFFICE WHOLEBUILDING - MD OFFICE C  - STORY GROUND,SUB SURFACE 9,OFFICE WHOLEBUILDING - MD OFFICE C  - STORY GROUND DAYLT SENSOR 2,1.2677E-002
 Sky Daylight Factors,Intermediate Sky,08/21,ZONE OFFICE WHOLEBUILDING - MD OFFICE C  - STORY GROUND DAYLIGHTINGCONTROLS,OFFICE WHOLEBUILDING - MD OFFICE C  - STORY GROUND,SUB SURFACE 9,OFFICE WHOLEBUILDING - MD OFFICE C  - STORY GROUND DAYLT SENSOR 1,2.0523E-002
 Sky Daylight Factors,Intermediate Sky,08/21,ZONE OFFICE WHOLEBUILDING - MD OFFICE C  - STORY GROUND DAYLIGHTINGCONTROLS,OFFICE WHOLEBUILDING - MD OFFICE C  - STORY GROUND,SUB SURFACE 9,OFFICE WHOLEBUILDING - MD OFFICE C  - STORY GROUND DAYLT SENSOR 2,9.3490E-003
 Sky Daylight Factors,Overcast Sky,08/21,ZONE OFFICE WHOLEBUILDING - MD OFFICE C  - STORY GROUND DAYLIGHTINGCONTROLS,OFFICE WHOLEBUILDING - MD OFFICE C  - STORY GROUND,SUB SURFACE 9,OFFICE WHOLEBUILDING - MD OFFICE C  - STORY GROUND DAYLT SENSOR 1,3.4090E-002
 Sky Daylight Factors,Overcast Sky,08/21,ZONE OFFICE WHOLEBUILDING - MD OFFICE C  - STORY GROUND DAYLIGHTINGCONTROLS,OFFICE WHOLEBUILDING - MD OFFICE C  - STORY GROUND,SUB SURFACE 9,OFFICE WHOLEBUILDING - MD OFFICE C  - STORY GROUND DAYLT SENSOR 2,1.3917E-002
! <Zone Sizing Information>, Zone Name, Load Type, Calc Des Load {W}, User Des Load {W}, Calc Des Air Flow Rate {m3/s}, User Des Air Flow Rate {m3/s}, Design Day Name, Date/Time of Peak, Temperature at Peak {C}, Humidity Ratio at Peak {kgWater/kgDryAir}, Floor Area {m2}, # Occupants, Calc Outdoor Air Flow Rate {m3/s}, Calc DOAS Heat Addition Rate {W}
 Zone Sizing Information, ZONE OFFICE WHOLEBUILDING - MD OFFICE A  - STORY GROUND, Cooling, 15383.46415, 17690.98377, 1.11594, 1.28333, KODIAK AUGUST .4% CONDNS DB=>MCWB, 8/21 14:40:00, 22.60000, 8.70767E-003, 197.98878, 10.65567, 8.54916E-002, 0.00000
 Zone Sizing Information, ZONE OFFICE WHOLEBUILDING - MD OFFICE A  - STORY GROUND, Heating, 19870.19962, 24837.74953, 0.55546, 0.69433, KODIAK ANN HTG 99.6% CONDNS DB, 1/21 08:00:00, -12.80000, 1.24844E-003, 197.98878, 10.65567, 8.54916E-002, 0.00000
 Zone Sizing Information, ZONE OFFICE WHOLEBUILDING - MD OFFICE A END_A - STORY GROUND, Cooling, 2531.42072, 2911.13383, 0.18363, 0.21118, KODIAK AUGUST .4% CONDNS DB=>MCWB, 8/21 16:50:00, 21.80200, 8.70643E-003, 20.90318, 1.12500, 9.02599E-003, 0.00000
 Zone Sizing Information, ZONE OFFICE WHOLEBUILDING - MD OFFICE A END_A - STORY GROUND, Heating, 3945.94713, 4932.43392, 0.11045, 0.13806, KODIAK ANN HTG 99.6% CONDNS DB, 1/21 08:00:00, -12.80000, 1.24844E-003, 20.90318, 1.12500, 9.02599E-003, 0.00000
 Zone Sizing Information, ZONE OFFICE WHOLEBUILDING - MD OFFICE A END_B - STORY GROUND, Cooling, 2385.79137, 2743.66008, 0.17307, 0.19903, KODIAK JULY .4% CONDNS DB=>MCWB, 7/21 11:50:00, 23.39333, 8.28368E-003, 20.90318, 1.12500, 9.02599E-003, 0.00000
 Zone Sizing Information, ZONE OFFICE WHOLEBUILDING - MD OFFICE A END_B - STORY GROUND, Heating, 3926.11826, 4907.64783, 0.10989, 0.13736, KODIAK ANN HTG 99.6% CONDNS DB, 1/21 08:00:00, -12.80000, 1.24844E-003, 20.90318, 1.12500, 9.02599E-003, 0.00000
 Zone Sizing Information, ZONE OFFICE WHOLEBUILDING - MD OFFICE B  - STORY GROUND, Cooling, 27717.75008, 31875.41259, 2.01070, 2.31231, KODIAK JULY .4% CONDNS DB=>MCWB, 7/21 15:10:00, 24.14500, 8.28485E-003, 1118.20159, 60.18111, 0.48284, 0.00000
 Zone Sizing Information, ZONE OFFICE WHOLEBUILDING - MD OFFICE B  - STORY GROUND, Heating, 30183.19389, 37728.99236, 0.78746, 0.98433, KODIAK ANN HTG 99.6% CONDNS DB, 1/21 07:00:00, -12.80000, 1.24844E-003, 1118.20159, 60.18111, 0.48284, 0.00000
 Zone Sizing Information, ZONE OFFICE WHOLEBUILDING - MD OFFICE B END_A - STORY GROUND, Cooling, 9738.44328, 11199.20977, 0.70644, 0.81240, KODIAK JULY .4% CONDNS DB=>MCWB, 7/21 19:30:00, 21.75250, 8.28115E-003, 118.05706, 6.35378, 5.09770E-002, 0.00000
 Zone Sizing Information, ZONE OFFICE WHOLEBUILDING - MD OFFICE B END_A - STORY GROUND, Heating, 12188.24358, 15235.30448, 0.34074, 0.42593, KODIAK ANN HTG 99.6% CONDNS DB, 1/21 08:00:00, -12.80000, 1.24844E-003, 118.05706, 6.35378, 5.09770E-002, 0.00000
 Zone Sizing Information, ZONE OFFICE WHOLEBUILDING - MD OFFICE B END_B - STORY GROUND, Cooling, 9239.18069, 10625.05779, 0.67022, 0.77075, KODIAK JULY .4% CONDNS DB=>MCWB, 7/21 08:20:00, 20.47833, 8.27921E-003, 118.05706, 6.35378, 5.09770E-002, 0.00000
 Zone Sizing Information, ZONE OFFICE WHOLEBUILDING - MD OFFICE B END_B - STORY GROUND, Heating, 12108.65180, 15135.81475, 0.33851, 0.42314, KODIAK ANN HTG 99.6% CONDNS DB, 1/21 08:00:00, -12.80000, 1.24844E-003, 118.05706, 6.35378, 5.09770E-002, 0.00000
 Zone Sizing Information, ZONE OFFICE WHOLEBUILDING - MD OFFICE C  - STORY GROUND, Cooling, 6220.67093, 7153.77157, 0.45125, 0.51894, KODIAK JULY .4% CONDNS DB=>MCWB, 7/21 14:50:00, 24.20000, 8.28493E-003, 197.98878, 10.65567, 8.54916E-002, 0.00000
 Zone Sizing Information, ZONE OFFICE WHOLEBUILDING - MD OFFICE C  - STORY GROUND, Heating, 19996.44493, 24995.55616, 0.55900, 0.69875, KODIAK ANN HTG 99.6% CONDNS DB, 1/21 08:00:00, -12.80000, 1.24844E-003, 197.98878, 10.65567, 8.54916E-002, 0.00000
 Zone Sizing Information, ZONE OFFICE WHOLEBUILDING - MD OFFICE C END_A - STORY GROUND, Cooling, 1934.03875, 2224.14456, 0.14030, 0.16134, KODIAK JULY .4% CONDNS DB=>MCWB, 7/21 20:00:00, 21.45000, 8.28069E-003, 20.90318, 1.12500, 9.02599E-003, 0.00000
 Zone Sizing Information, ZONE OFFICE WHOLEBUILDING - MD OFFICE C END_A - STORY GROUND, Heating, 3965.71052, 4957.13814, 0.11100, 0.13875, KODIAK ANN HTG 99.6% CONDNS DB, 1/21 08:00:00, -12.80000, 1.24844E-003, 20.90318, 1.12500, 9.02599E-003, 0.00000
 Zone Sizing Information, ZONE OFFICE WHOLEBUILDING - MD OFFICE C END_B - STORY GROUND, Cooling, 1827.49265, 2101.61655, 0.13143, 0.15115, KODIAK JULY .4% CONDNS DB=>MCWB, 7/21 08:00:00, 20.13000, 8.27867E-003, 20.90318, 1.12500, 9.02599E-003, 0.00000
 Zone Sizing Information, ZONE OFFICE WHOLEBUILDING - MD OFFICE C END_B - STORY GROUND, Heating, 3945.90726, 4932.38408, 0.11045, 0.13806, KODIAK ANN HTG 99.6% CONDNS DB, 1/21 08:00:00, -12.80000, 1.24844E-003, 20.90318, 1.12500, 9.02599E-003, 0.00000
! <System Sizing Information>, System Name, Load Type, Peak Load Kind, User Design Capacity, Calc Des Air Flow Rate [m3/s], User Des Air Flow Rate [m3/s], Design Day Name, Date/Time of Peak
 System Sizing Information, ZONE OFFICE WHOLEBUILDING - MD OFFICE A  - STORY GROUND PSZ-AC, Cooling, Sensible, 17272.72, 1.28333, 1.28333, KODIAK AUGUST .4% CONDNS DB=>MCWB, 8/21 05:00:00
 System Sizing Information, ZONE OFFICE WHOLEBUILDING - MD OFFICE A  - STORY GROUND PSZ-AC, Heating, Sensible, 27913.97, 0.69433, 0.69433, KODIAK ANN HTG 99.6% CONDNS DB, 1/21 08:00:00
 System Sizing Information, ZONE OFFICE WHOLEBUILDING - MD OFFICE A END_A - STORY GROUND PSZ-AC, Cooling, Sensible, 2842.13, 0.21118, 0.21118, KODIAK AUGUST .4% CONDNS DB=>MCWB, 8/21 05:00:00
 System Sizing Information, ZONE OFFICE WHOLEBUILDING - MD OFFICE A END_A - STORY GROUND PSZ-AC, Heating, Sensible, 5220.13, 0.13806, 0.13806, KODIAK ANN HTG 99.6% CONDNS DB, 1/21 08:00:00
 System Sizing Information, ZONE OFFICE WHOLEBUILDING - MD OFFICE A END_B - STORY GROUND PSZ-AC, Cooling, Sensible, 2694.61, 0.19903, 0.19903, KODIAK JULY .4% CONDNS DB=>MCWB, 7/21 05:00:00
 System Sizing Information, ZONE OFFICE WHOLEBUILDING - MD OFFICE A END_B - STORY GROUND PSZ-AC, Heating, Sensible, 5195.70, 0.13736, 0.13736, KODIAK ANN HTG 99.6% CONDNS DB, 1/21 08:00:00
 System Sizing Information, ZONE OFFICE WHOLEBUILDING - MD OFFICE B  - STORY GROUND PSZ-AC, Cooling, Sensible, 31496.70, 2.31231, 2.31231, KODIAK JULY .4% CONDNS DB=>MCWB, 7/21 05:00:00
 System Sizing Information, ZONE OFFICE WHOLEBUILDING - MD OFFICE B  - STORY GROUND PSZ-AC, Heating, Sensible, 55410.65, 1.00286, 1.00286, KODIAK ANN HTG 99.6% CONDNS DB, 1/21 07:00:00
 System Sizing Information, ZONE OFFICE WHOLEBUILDING - MD OFFICE B END_A - STORY GROUND PSZ-AC, Cooling, Sensible, 10891.16, 0.81240, 0.81240, KODIAK JULY .4% CONDNS DB=>MCWB, 7/21 05:00:00
 System Sizing Information, ZONE OFFICE WHOLEBUILDING - MD OFFICE B END_A - STORY GROUND PSZ-AC, Heating, Sensible, 17064.14, 0.42593, 0.42593, KODIAK ANN HTG 99.6% CONDNS DB, 1/21 08:00:00
 System Sizing Information, ZONE OFFICE WHOLEBUILDING - MD OFFICE B END_B - STORY GROUND PSZ-AC, Cooling, Sensible, 10243.66, 0.77075, 0.77075, KODIAK JULY .4% CONDNS DB=>MCWB, 7/21 05:00:00
 System Sizing Information, ZONE OFFICE WHOLEBUILDING - MD OFFICE B END_B - STORY GROUND PSZ-AC, Heating, Sensible, 16965.92, 0.42314, 0.42314, KODIAK ANN HTG 99.6% CONDNS DB, 1/21 08:00:00
 System Sizing Information, ZONE OFFICE WHOLEBUILDING - MD OFFICE C  - STORY GROUND PSZ-AC, Cooling, Sensible, 7063.87, 0.51894, 0.51894, KODIAK JULY .4% CONDNS DB=>MCWB, 7/21 05:00:00
 System Sizing Information, ZONE OFFICE WHOLEBUILDING - MD OFFICE C  - STORY GROUND PSZ-AC, Heating, Sensible, 28069.77, 0.69875, 0.69875, KODIAK ANN HTG 99.6% CONDNS DB, 1/21 08:00:00
 System Sizing Information, ZONE OFFICE WHOLEBUILDING - MD OFFICE C END_A - STORY GROUND PSZ-AC, Cooling, Sensible, 2161.92, 0.16134, 0.16134, KODIAK JULY .4% CONDNS DB=>MCWB, 7/21 05:00:00
 System Sizing Information, ZONE OFFICE WHOLEBUILDING - MD OFFICE C END_A - STORY GROUND PSZ-AC, Heating, Sensible, 5244.47, 0.13875, 0.13875, KODIAK ANN HTG 99.6% CONDNS DB, 1/21 08:00:00
 System Sizing Information, ZONE OFFICE WHOLEBUILDING - MD OFFICE C END_B - STORY GROUND PSZ-AC, Cooling, Sensible, 2017.13, 0.15115, 0.15115, KODIAK JULY .4% CONDNS DB=>MCWB, 7/21 05:00:00
 System Sizing Information, ZONE OFFICE WHOLEBUILDING - MD OFFICE C END_B - STORY GROUND PSZ-AC, Heating, Sensible, 5220.08, 0.13806, 0.13806, KODIAK ANN HTG 99.6% CONDNS DB, 1/21 08:00:00
! <Component Sizing Information>, Component Type, Component Name, Input Field Description, Value
 Component Sizing Information, AirTerminal:SingleDuct:ConstantVolume:NoReheat, ZONE OFFICE WHOLEBUILDING - MD OFFICE A  - STORY GROUND PSZ-AC DIFFUSER, Design Size Maximum Air Flow Rate [m3/s], 1.28333
 Component Sizing Information, AirTerminal:SingleDuct:ConstantVolume:NoReheat, ZONE OFFICE WHOLEBUILDING - MD OFFICE A END_A - STORY GROUND PSZ-AC DIFFUSER, Design Size Maximum Air Flow Rate [m3/s], 0.21118
 Component Sizing Information, AirTerminal:SingleDuct:ConstantVolume:NoReheat, ZONE OFFICE WHOLEBUILDING - MD OFFICE A END_B - STORY GROUND PSZ-AC DIFFUSER, Design Size Maximum Air Flow Rate [m3/s], 0.19903
 Component Sizing Information, AirTerminal:SingleDuct:ConstantVolume:NoReheat, ZONE OFFICE WHOLEBUILDING - MD OFFICE B  - STORY GROUND PSZ-AC DIFFUSER, Design Size Maximum Air Flow Rate [m3/s], 2.31231
 Component Sizing Information, AirTerminal:SingleDuct:ConstantVolume:NoReheat, ZONE OFFICE WHOLEBUILDING - MD OFFICE B END_A - STORY GROUND PSZ-AC DIFFUSER, Design Size Maximum Air Flow Rate [m3/s], 0.81240
 Component Sizing Information, AirTerminal:SingleDuct:ConstantVolume:NoReheat, ZONE OFFICE WHOLEBUILDING - MD OFFICE B END_B - STORY GROUND PSZ-AC DIFFUSER, Design Size Maximum Air Flow Rate [m3/s], 0.77075
 Component Sizing Information, AirTerminal:SingleDuct:ConstantVolume:NoReheat, ZONE OFFICE WHOLEBUILDING - MD OFFICE C  - STORY GROUND PSZ-AC DIFFUSER, Design Size Maximum Air Flow Rate [m3/s], 0.69875
 Component Sizing Information, AirTerminal:SingleDuct:ConstantVolume:NoReheat, ZONE OFFICE WHOLEBUILDING - MD OFFICE C END_A - STORY GROUND PSZ-AC DIFFUSER, Design Size Maximum Air Flow Rate [m3/s], 0.16134
 Component Sizing Information, AirTerminal:SingleDuct:ConstantVolume:NoReheat, ZONE OFFICE WHOLEBUILDING - MD OFFICE C END_B - STORY GROUND PSZ-AC DIFFUSER, Design Size Maximum Air Flow Rate [m3/s], 0.15115
 Component Sizing Information, AirLoopHVAC, ZONE OFFICE WHOLEBUILDING - MD OFFICE A  - STORY GROUND PSZ-AC, Sum of Air Terminal Maximum Heating Flow Rates [m3/s], 1.28333
 Component Sizing Information, AirLoopHVAC, ZONE OFFICE WHOLEBUILDING - MD OFFICE A  - STORY GROUND PSZ-AC, Sum of Air Terminal Minimum Heating Flow Rates [m3/s], 1.28333
 Component Sizing Information, AirLoopHVAC, ZONE OFFICE WHOLEBUILDING - MD OFFICE A  - STORY GROUND PSZ-AC, Sum of Air Terminal Maximum Flow Rates [m3/s], 1.28333
 Component Sizing Information, AirLoopHVAC, ZONE OFFICE WHOLEBUILDING - MD OFFICE A  - STORY GROUND PSZ-AC, Adjusted Heating Design Air Flow Rate [m3/s], 1.28333
 Component Sizing Information, AirLoopHVAC, ZONE OFFICE WHOLEBUILDING - MD OFFICE A  - STORY GROUND PSZ-AC, Adjusted Cooling Design Air Flow Rate [m3/s], 1.28333
 Component Sizing Information, AirLoopHVAC, ZONE OFFICE WHOLEBUILDING - MD OFFICE A  - STORY GROUND PSZ-AC, Adjusted Main Design Air Flow Rate [m3/s], 1.28333
 Component Sizing Information, AirLoopHVAC, ZONE OFFICE WHOLEBUILDING - MD OFFICE A  - STORY GROUND PSZ-AC, User Heating Air Flow Ratio [], 1.00000
 Component Sizing Information, AirLoopHVAC, ZONE OFFICE WHOLEBUILDING - MD OFFICE A  - STORY GROUND PSZ-AC, Calculated Heating Air Flow Ratio [], 1.00000
 Component Sizing Information, AirLoopHVAC, ZONE OFFICE WHOLEBUILDING - MD OFFICE A END_A - STORY GROUND PSZ-AC, Sum of Air Terminal Maximum Heating Flow Rates [m3/s], 0.21118
 Component Sizing Information, AirLoopHVAC, ZONE OFFICE WHOLEBUILDING - MD OFFICE A END_A - STORY GROUND PSZ-AC, Sum of Air Terminal Minimum Heating Flow Rates [m3/s], 0.21118
 Component Sizing Information, AirLoopHVAC, ZONE OFFICE WHOLEBUILDING - MD OFFICE A END_A - STORY GROUND PSZ-AC, Sum of Air Terminal Maximum Flow Rates [m3/s], 0.21118
 Component Sizing Information, AirLoopHVAC, ZONE OFFICE WHOLEBUILDING - MD OFFICE A END_A - STORY GROUND PSZ-AC, Adjusted Heating Design Air Flow Rate [m3/s], 0.21118
 Component Sizing Information, AirLoopHVAC, ZONE OFFICE WHOLEBUILDING - MD OFFICE A END_A - STORY GROUND PSZ-AC, Adjusted Cooling Design Air Flow Rate [m3/s], 0.21118
 Component Sizing Information, AirLoopHVAC, ZONE OFFICE WHOLEBUILDING - MD OFFICE A END_A - STORY GROUND PSZ-AC, Adjusted Main Design Air Flow Rate [m3/s], 0.21118
 Component Sizing Information, AirLoopHVAC, ZONE OFFICE WHOLEBUILDING - MD OFFICE A END_A - STORY GROUND PSZ-AC, User Heating Air Flow Ratio [], 1.00000
 Component Sizing Information, AirLoopHVAC, ZONE OFFICE WHOLEBUILDING - MD OFFICE A END_A - STORY GROUND PSZ-AC, Calculated Heating Air Flow Ratio [], 1.00000
 Component Sizing Information, AirLoopHVAC, ZONE OFFICE WHOLEBUILDING - MD OFFICE A END_B - STORY GROUND PSZ-AC, Sum of Air Terminal Maximum Heating Flow Rates [m3/s], 0.19903
 Component Sizing Information, AirLoopHVAC, ZONE OFFICE WHOLEBUILDING - MD OFFICE A END_B - STORY GROUND PSZ-AC, Sum of Air Terminal Minimum Heating Flow Rates [m3/s], 0.19903
 Component Sizing Information, AirLoopHVAC, ZONE OFFICE WHOLEBUILDING - MD OFFICE A END_B - STORY GROUND PSZ-AC, Sum of Air Terminal Maximum Flow Rates [m3/s], 0.19903
 Component Sizing Information, AirLoopHVAC, ZONE OFFICE WHOLEBUILDING - MD OFFICE A END_B - STORY GROUND PSZ-AC, Adjusted Heating Design Air Flow Rate [m3/s], 0.19903
 Component Sizing Information, AirLoopHVAC, ZONE OFFICE WHOLEBUILDING - MD OFFICE A END_B - STORY GROUND PSZ-AC, Adjusted Cooling Design Air Flow Rate [m3/s], 0.19903
 Component Sizing Information, AirLoopHVAC, ZONE OFFICE WHOLEBUILDING - MD OFFICE A END_B - STORY GROUND PSZ-AC, Adjusted Main Design Air Flow Rate [m3/s], 0.19903
 Component Sizing Information, AirLoopHVAC, ZONE OFFICE WHOLEBUILDING - MD OFFICE A END_B - STORY GROUND PSZ-AC, User Heating Air Flow Ratio [], 1.00000
 Component Sizing Information, AirLoopHVAC, ZONE OFFICE WHOLEBUILDING - MD OFFICE A END_B - STORY GROUND PSZ-AC, Calculated Heating Air Flow Ratio [], 1.00000
 Component Sizing Information, AirLoopHVAC, ZONE OFFICE WHOLEBUILDING - MD OFFICE B  - STORY GROUND PSZ-AC, Sum of Air Terminal Maximum Heating Flow Rates [m3/s], 2.31231
 Component Sizing Information, AirLoopHVAC, ZONE OFFICE WHOLEBUILDING - MD OFFICE B  - STORY GROUND PSZ-AC, Sum of Air Terminal Minimum Heating Flow Rates [m3/s], 2.31231
 Component Sizing Information, AirLoopHVAC, ZONE OFFICE WHOLEBUILDING - MD OFFICE B  - STORY GROUND PSZ-AC, Sum of Air Terminal Maximum Flow Rates [m3/s], 2.31231
 Component Sizing Information, AirLoopHVAC, ZONE OFFICE WHOLEBUILDING - MD OFFICE B  - STORY GROUND PSZ-AC, Adjusted Heating Design Air Flow Rate [m3/s], 2.31231
 Component Sizing Information, AirLoopHVAC, ZONE OFFICE WHOLEBUILDING - MD OFFICE B  - STORY GROUND PSZ-AC, Adjusted Cooling Design Air Flow Rate [m3/s], 2.31231
 Component Sizing Information, AirLoopHVAC, ZONE OFFICE WHOLEBUILDING - MD OFFICE B  - STORY GROUND PSZ-AC, Adjusted Main Design Air Flow Rate [m3/s], 2.31231
 Component Sizing Information, AirLoopHVAC, ZONE OFFICE WHOLEBUILDING - MD OFFICE B  - STORY GROUND PSZ-AC, User Heating Air Flow Ratio [], 1.00000
 Component Sizing Information, AirLoopHVAC, ZONE OFFICE WHOLEBUILDING - MD OFFICE B  - STORY GROUND PSZ-AC, Calculated Heating Air Flow Ratio [], 1.00000
 Component Sizing Information, AirLoopHVAC, ZONE OFFICE WHOLEBUILDING - MD OFFICE B END_A - STORY GROUND PSZ-AC, Sum of Air Terminal Maximum Heating Flow Rates [m3/s], 0.81240
 Component Sizing Information, AirLoopHVAC, ZONE OFFICE WHOLEBUILDING - MD OFFICE B END_A - STORY GROUND PSZ-AC, Sum of Air Terminal Minimum Heating Flow Rates [m3/s], 0.81240
 Component Sizing Information, AirLoopHVAC, ZONE OFFICE WHOLEBUILDING - MD OFFICE B END_A - STORY GROUND PSZ-AC, Sum of Air Terminal Maximum Flow Rates [m3/s], 0.81240
 Component Sizing Information, AirLoopHVAC, ZONE OFFICE WHOLEBUILDING - MD OFFICE B END_A - STORY GROUND PSZ-AC, Adjusted Heating Design Air Flow Rate [m3/s], 0.81240
 Component Sizing Information, AirLoopHVAC, ZONE OFFICE WHOLEBUILDING - MD OFFICE B END_A - STORY GROUND PSZ-AC, Adjusted Cooling Design Air Flow Rate [m3/s], 0.81240
 Component Sizing Information, AirLoopHVAC, ZONE OFFICE WHOLEBUILDING - MD OFFICE B END_A - STORY GROUND PSZ-AC, Adjusted Main Design Air Flow Rate [m3/s], 0.81240
 Component Sizing Information, AirLoopHVAC, ZONE OFFICE WHOLEBUILDING - MD OFFICE B END_A - STORY GROUND PSZ-AC, User Heating Air Flow Ratio [], 1.00000
 Component Sizing Information, AirLoopHVAC, ZONE OFFICE WHOLEBUILDING - MD OFFICE B END_A - STORY GROUND PSZ-AC, Calculated Heating Air Flow Ratio [], 1.00000
 Component Sizing Information, AirLoopHVAC, ZONE OFFICE WHOLEBUILDING - MD OFFICE B END_B - STORY GROUND PSZ-AC, Sum of Air Terminal Maximum Heating Flow Rates [m3/s], 0.77075
 Component Sizing Information, AirLoopHVAC, ZONE OFFICE WHOLEBUILDING - MD OFFICE B END_B - STORY GROUND PSZ-AC, Sum of Air Terminal Minimum Heating Flow Rates [m3/s], 0.77075
 Component Sizing Information, AirLoopHVAC, ZONE OFFICE WHOLEBUILDING - MD OFFICE B END_B - STORY GROUND PSZ-AC, Sum of Air Terminal Maximum Flow Rates [m3/s], 0.77075
 Component Sizing Information, AirLoopHVAC, ZONE OFFICE WHOLEBUILDING - MD OFFICE B END_B - STORY GROUND PSZ-AC, Adjusted Heating Design Air Flow Rate [m3/s], 0.77075
 Component Sizing Information, AirLoopHVAC, ZONE OFFICE WHOLEBUILDING - MD OFFICE B END_B - STORY GROUND PSZ-AC, Adjusted Cooling Design Air Flow Rate [m3/s], 0.77075
 Component Sizing Information, AirLoopHVAC, ZONE OFFICE WHOLEBUILDING - MD OFFICE B END_B - STORY GROUND PSZ-AC, Adjusted Main Design Air Flow Rate [m3/s], 0.77075
 Component Sizing Information, AirLoopHVAC, ZONE OFFICE WHOLEBUILDING - MD OFFICE B END_B - STORY GROUND PSZ-AC, User Heating Air Flow Ratio [], 1.00000
 Component Sizing Information, AirLoopHVAC, ZONE OFFICE WHOLEBUILDING - MD OFFICE B END_B - STORY GROUND PSZ-AC, Calculated Heating Air Flow Ratio [], 1.00000
 Component Sizing Information, AirLoopHVAC, ZONE OFFICE WHOLEBUILDING - MD OFFICE C  - STORY GROUND PSZ-AC, Sum of Air Terminal Maximum Heating Flow Rates [m3/s], 0.69875
 Component Sizing Information, AirLoopHVAC, ZONE OFFICE WHOLEBUILDING - MD OFFICE C  - STORY GROUND PSZ-AC, Sum of Air Terminal Minimum Heating Flow Rates [m3/s], 0.69875
 Component Sizing Information, AirLoopHVAC, ZONE OFFICE WHOLEBUILDING - MD OFFICE C  - STORY GROUND PSZ-AC, Sum of Air Terminal Maximum Flow Rates [m3/s], 0.69875
 Component Sizing Information, AirLoopHVAC, ZONE OFFICE WHOLEBUILDING - MD OFFICE C  - STORY GROUND PSZ-AC, Adjusted Heating Design Air Flow Rate [m3/s], 0.69875
 Component Sizing Information, AirLoopHVAC, ZONE OFFICE WHOLEBUILDING - MD OFFICE C  - STORY GROUND PSZ-AC, Adjusted Cooling Design Air Flow Rate [m3/s], 0.69875
 Component Sizing Information, AirLoopHVAC, ZONE OFFICE WHOLEBUILDING - MD OFFICE C  - STORY GROUND PSZ-AC, Adjusted Main Design Air Flow Rate [m3/s], 0.69875
 Component Sizing Information, AirLoopHVAC, ZONE OFFICE WHOLEBUILDING - MD OFFICE C  - STORY GROUND PSZ-AC, User Heating Air Flow Ratio [], 1.00000
 Component Sizing Information, AirLoopHVAC, ZONE OFFICE WHOLEBUILDING - MD OFFICE C  - STORY GROUND PSZ-AC, Calculated Heating Air Flow Ratio [], 1.00000
 Component Sizing Information, AirLoopHVAC, ZONE OFFICE WHOLEBUILDING - MD OFFICE C END_A - STORY GROUND PSZ-AC, Sum of Air Terminal Maximum Heating Flow Rates [m3/s], 0.16134
 Component Sizing Information, AirLoopHVAC, ZONE OFFICE WHOLEBUILDING - MD OFFICE C END_A - STORY GROUND PSZ-AC, Sum of Air Terminal Minimum Heating Flow Rates [m3/s], 0.16134
 Component Sizing Information, AirLoopHVAC, ZONE OFFICE WHOLEBUILDING - MD OFFICE C END_A - STORY GROUND PSZ-AC, Sum of Air Terminal Maximum Flow Rates [m3/s], 0.16134
 Component Sizing Information, AirLoopHVAC, ZONE OFFICE WHOLEBUILDING - MD OFFICE C END_A - STORY GROUND PSZ-AC, Adjusted Heating Design Air Flow Rate [m3/s], 0.16134
 Component Sizing Information, AirLoopHVAC, ZONE OFFICE WHOLEBUILDING - MD OFFICE C END_A - STORY GROUND PSZ-AC, Adjusted Cooling Design Air Flow Rate [m3/s], 0.16134
 Component Sizing Information, AirLoopHVAC, ZONE OFFICE WHOLEBUILDING - MD OFFICE C END_A - STORY GROUND PSZ-AC, Adjusted Main Design Air Flow Rate [m3/s], 0.16134
 Component Sizing Information, AirLoopHVAC, ZONE OFFICE WHOLEBUILDING - MD OFFICE C END_A - STORY GROUND PSZ-AC, User Heating Air Flow Ratio [], 1.00000
 Component Sizing Information, AirLoopHVAC, ZONE OFFICE WHOLEBUILDING - MD OFFICE C END_A - STORY GROUND PSZ-AC, Calculated Heating Air Flow Ratio [], 1.00000
 Component Sizing Information, AirLoopHVAC, ZONE OFFICE WHOLEBUILDING - MD OFFICE C END_B - STORY GROUND PSZ-AC, Sum of Air Terminal Maximum Heating Flow Rates [m3/s], 0.15115
 Component Sizing Information, AirLoopHVAC, ZONE OFFICE WHOLEBUILDING - MD OFFICE C END_B - STORY GROUND PSZ-AC, Sum of Air Terminal Minimum Heating Flow Rates [m3/s], 0.15115
 Component Sizing Information, AirLoopHVAC, ZONE OFFICE WHOLEBUILDING - MD OFFICE C END_B - STORY GROUND PSZ-AC, Sum of Air Terminal Maximum Flow Rates [m3/s], 0.15115
 Component Sizing Information, AirLoopHVAC, ZONE OFFICE WHOLEBUILDING - MD OFFICE C END_B - STORY GROUND PSZ-AC, Adjusted Heating Design Air Flow Rate [m3/s], 0.15115
 Component Sizing Information, AirLoopHVAC, ZONE OFFICE WHOLEBUILDING - MD OFFICE C END_B - STORY GROUND PSZ-AC, Adjusted Cooling Design Air Flow Rate [m3/s], 0.15115
 Component Sizing Information, AirLoopHVAC, ZONE OFFICE WHOLEBUILDING - MD OFFICE C END_B - STORY GROUND PSZ-AC, Adjusted Main Design Air Flow Rate [m3/s], 0.15115
 Component Sizing Information, AirLoopHVAC, ZONE OFFICE WHOLEBUILDING - MD OFFICE C END_B - STORY GROUND PSZ-AC, User Heating Air Flow Ratio [], 1.00000
 Component Sizing Information, AirLoopHVAC, ZONE OFFICE WHOLEBUILDING - MD OFFICE C END_B - STORY GROUND PSZ-AC, Calculated Heating Air Flow Ratio [], 1.00000
 Component Sizing Information, AirLoopHVAC, ZONE OFFICE WHOLEBUILDING - MD OFFICE A  - STORY GROUND PSZ-AC, Design Supply Air Flow Rate [m3/s], 1.28333
 Component Sizing Information, AirLoopHVAC, ZONE OFFICE WHOLEBUILDING - MD OFFICE A END_A - STORY GROUND PSZ-AC, Design Supply Air Flow Rate [m3/s], 0.21118
 Component Sizing Information, AirLoopHVAC, ZONE OFFICE WHOLEBUILDING - MD OFFICE A END_B - STORY GROUND PSZ-AC, Design Supply Air Flow Rate [m3/s], 0.19903
 Component Sizing Information, AirLoopHVAC, ZONE OFFICE WHOLEBUILDING - MD OFFICE B  - STORY GROUND PSZ-AC, Design Supply Air Flow Rate [m3/s], 2.31231
 Component Sizing Information, AirLoopHVAC, ZONE OFFICE WHOLEBUILDING - MD OFFICE B END_A - STORY GROUND PSZ-AC, Design Supply Air Flow Rate [m3/s], 0.81240
 Component Sizing Information, AirLoopHVAC, ZONE OFFICE WHOLEBUILDING - MD OFFICE B END_B - STORY GROUND PSZ-AC, Design Supply Air Flow Rate [m3/s], 0.77075
 Component Sizing Information, AirLoopHVAC, ZONE OFFICE WHOLEBUILDING - MD OFFICE C  - STORY GROUND PSZ-AC, Design Supply Air Flow Rate [m3/s], 0.69875
 Component Sizing Information, AirLoopHVAC, ZONE OFFICE WHOLEBUILDING - MD OFFICE C END_A - STORY GROUND PSZ-AC, Design Supply Air Flow Rate [m3/s], 0.16134
 Component Sizing Information, AirLoopHVAC, ZONE OFFICE WHOLEBUILDING - MD OFFICE C END_B - STORY GROUND PSZ-AC, Design Supply Air Flow Rate [m3/s], 0.15115
!<Controller:MechanicalVentilation>,Name,Availability Schedule Name,Demand Controlled Ventilation {Yes/No},System Outdoor Air Method,Zone Maximum Outdoor Air Fraction,Number of Zones,Zone Name,DSOA Name,DSZAD Name
 Controller:MechanicalVentilation,CONTROLLER MECHANICAL VENTILATION 1,ALWAYS ON DISCRETE,No,ZoneSum,1.00,1,ZONE OFFICE WHOLEBUILDING - MD OFFICE A  - STORY GROUND,OFFICE WHOLEBUILDING - MD OFFICE VENTILATION,
 Controller:MechanicalVentilation,CONTROLLER MECHANICAL VENTILATION 2,ALWAYS ON DISCRETE,No,ZoneSum,1.00,1,ZONE OFFICE WHOLEBUILDING - MD OFFICE A END_A - STORY GROUND,OFFICE WHOLEBUILDING - MD OFFICE VENTILATION,
 Controller:MechanicalVentilation,CONTROLLER MECHANICAL VENTILATION 3,ALWAYS ON DISCRETE,No,ZoneSum,1.00,1,ZONE OFFICE WHOLEBUILDING - MD OFFICE A END_B - STORY GROUND,OFFICE WHOLEBUILDING - MD OFFICE VENTILATION,
 Controller:MechanicalVentilation,CONTROLLER MECHANICAL VENTILATION 4,ALWAYS ON DISCRETE,No,ZoneSum,1.00,1,ZONE OFFICE WHOLEBUILDING - MD OFFICE B  - STORY GROUND,OFFICE WHOLEBUILDING - MD OFFICE VENTILATION,
 Controller:MechanicalVentilation,CONTROLLER MECHANICAL VENTILATION 5,ALWAYS ON DISCRETE,No,ZoneSum,1.00,1,ZONE OFFICE WHOLEBUILDING - MD OFFICE B END_A - STORY GROUND,OFFICE WHOLEBUILDING - MD OFFICE VENTILATION,
 Controller:MechanicalVentilation,CONTROLLER MECHANICAL VENTILATION 6,ALWAYS ON DISCRETE,No,ZoneSum,1.00,1,ZONE OFFICE WHOLEBUILDING - MD OFFICE B END_B - STORY GROUND,OFFICE WHOLEBUILDING - MD OFFICE VENTILATION,
 Controller:MechanicalVentilation,CONTROLLER MECHANICAL VENTILATION 7,ALWAYS ON DISCRETE,No,ZoneSum,1.00,1,ZONE OFFICE WHOLEBUILDING - MD OFFICE C  - STORY GROUND,OFFICE WHOLEBUILDING - MD OFFICE VENTILATION,
 Controller:MechanicalVentilation,CONTROLLER MECHANICAL VENTILATION 8,ALWAYS ON DISCRETE,No,ZoneSum,1.00,1,ZONE OFFICE WHOLEBUILDING - MD OFFICE C END_A - STORY GROUND,OFFICE WHOLEBUILDING - MD OFFICE VENTILATION,
 Controller:MechanicalVentilation,CONTROLLER MECHANICAL VENTILATION 9,ALWAYS ON DISCRETE,No,ZoneSum,1.00,1,ZONE OFFICE WHOLEBUILDING - MD OFFICE C END_B - STORY GROUND,OFFICE WHOLEBUILDING - MD OFFICE VENTILATION,
 Component Sizing Information, Controller:OutdoorAir, ZONE OFFICE WHOLEBUILDING - MD OFFICE A  - STORY GROUND PSZ-AC OA SYSTEM CONTROLLER, Maximum Outdoor Air Flow Rate [m3/s], 1.28333
 Component Sizing Information, Controller:OutdoorAir, ZONE OFFICE WHOLEBUILDING - MD OFFICE A  - STORY GROUND PSZ-AC OA SYSTEM CONTROLLER, Minimum Outdoor Air Flow Rate [m3/s], 8.54916E-002
 Component Sizing Information, AirLoopHVAC:UnitarySystem, ZONE OFFICE WHOLEBUILDING - MD OFFICE A  - STORY GROUND PSZ-AC UNITARY AC, Design Size Supply Air Flow Rate [m3/s], 1.28333
 Component Sizing Information, AirLoopHVAC:UnitarySystem, ZONE OFFICE WHOLEBUILDING - MD OFFICE A  - STORY GROUND PSZ-AC UNITARY AC, Design Size Heating Supply Air Flow Rate [m3/s], 1.28333
 Component Sizing Information, AirLoopHVAC:UnitarySystem, ZONE OFFICE WHOLEBUILDING - MD OFFICE A  - STORY GROUND PSZ-AC UNITARY AC, Design Size Cooling Supply Air Flow Rate [m3/s], 1.28333
 Component Sizing Information, AirLoopHVAC:UnitarySystem, ZONE OFFICE WHOLEBUILDING - MD OFFICE A  - STORY GROUND PSZ-AC UNITARY AC, User-Specified No Load Supply Air Flow Rate [m3/s], 0.00000
 Component Sizing Information, AirLoopHVAC:UnitarySystem, ZONE OFFICE WHOLEBUILDING - MD OFFICE A  - STORY GROUND PSZ-AC UNITARY AC, Design Size Nominal Cooling Capacity [W], 21243.68515
 Component Sizing Information, Coil:Heating:Water, ZONE OFFICE WHOLEBUILDING - MD OFFICE A  - STORY GROUND PSZ-AC WATER HTG COIL, Design Size Rated Capacity [W], 48636.82382
 Component Sizing Information, Coil:Heating:Water, ZONE OFFICE WHOLEBUILDING - MD OFFICE A  - STORY GROUND PSZ-AC WATER HTG COIL, Design Size Maximum Water Flow Rate [m3/s], 1.06383E-003
 Component Sizing Information, Coil:Heating:Water, ZONE OFFICE WHOLEBUILDING - MD OFFICE A  - STORY GROUND PSZ-AC WATER HTG COIL, Design Size U-Factor Times Area Value [W/K], 1209.62194
! <Water Heating Coil Capacity Information>,Component Type,Name,Nominal Total Capacity {W}
Water Heating Coil Capacity Information,Coil:Heating:Water,ZONE OFFICE WHOLEBUILDING - MD OFFICE A  - STORY GROUND PSZ-AC WATER HTG COIL,50273.54
 Component Sizing Information, AirLoopHVAC:UnitarySystem, ZONE OFFICE WHOLEBUILDING - MD OFFICE A  - STORY GROUND PSZ-AC UNITARY AC, Design Size Nominal Heating Capacity [W], 48636.82382
 Component Sizing Information, AirLoopHVAC:UnitarySystem, ZONE OFFICE WHOLEBUILDING - MD OFFICE A  - STORY GROUND PSZ-AC UNITARY AC, Design Size Maximum Supply Air Temperature [C], 50.00000
 Component Sizing Information, AirLoopHVAC:UnitarySystem, ZONE OFFICE WHOLEBUILDING - MD OFFICE A  - STORY GROUND PSZ-AC UNITARY AC, User-Specified Maximum Supply Air Temperature [C], 80.00000
 Component Sizing Information, AirLoopHVAC:UnitarySystem, ZONE OFFICE WHOLEBUILDING - MD OFFICE A  - STORY GROUND PSZ-AC UNITARY AC, User-Specified Supplemental Heating Coil Nominal Capacity [W], 48636.82382
 Component Sizing Information, AirLoopHVAC:UnitarySystem, ZONE OFFICE WHOLEBUILDING - MD OFFICE A  - STORY GROUND PSZ-AC UNITARY AC, Fraction of Supply Air Flow That Goes Through the Controlling Zone, 1.00000
 Component Sizing Information, Coil:Cooling:DX:SingleSpeed, ZONE OFFICE WHOLEBUILDING - MD OFFICE A  - STORY GROUND PSZ-AC 1SPD DX AC CLG COIL, Design Size Rated Air Flow Rate [m3/s], 1.28333
 Component Sizing Information, Coil:Cooling:DX:SingleSpeed, ZONE OFFICE WHOLEBUILDING - MD OFFICE A  - STORY GROUND PSZ-AC 1SPD DX AC CLG COIL, Design Size Gross Rated Total Cooling Capacity [W], 21243.68515
 Component Sizing Information, Coil:Cooling:DX:SingleSpeed, ZONE OFFICE WHOLEBUILDING - MD OFFICE A  - STORY GROUND PSZ-AC 1SPD DX AC CLG COIL, Design Size Gross Rated Sensible Heat Ratio, 0.80066
! <DX Cooling Coil Standard Rating Information>, Component Type, Component Name, Standard Rating (Net) Cooling Capacity {W}, Standard Rated Net COP {W/W}, EER {Btu/W-h}, SEER User {Btu/W-h}, SEER Standard {Btu/W-h}, IEER {Btu/W-h}
 DX Cooling Coil Standard Rating Information, Coil:Cooling:DX:SingleSpeed, ZONE OFFICE WHOLEBUILDING - MD OFFICE A  - STORY GROUND PSZ-AC 1SPD DX AC CLG COIL, 20249.1, 2.51, 8.56, 9.83, 8.99, 9.37
 DX Cooling Coil Standard Rating Information, Coil:Cooling:DX:SingleSpeed, ZONE OFFICE WHOLEBUILDING - MD OFFICE A  - STORY GROUND PSZ-AC 1SPD DX AC CLG COIL, 20042.4, 2.42, 8.26, 9.46, 8.90,  
 Component Sizing Information, Fan:OnOff, ZONE OFFICE WHOLEBUILDING - MD OFFICE A  - STORY GROUND PSZ-AC FAN, Design Size Maximum Flow Rate [m3/s], 1.28333
 Component Sizing Information, Coil:Heating:Electric, ZONE OFFICE WHOLEBUILDING - MD OFFICE A  - STORY GROUND PSZ-AC ELECTRIC BACKUP HTG COIL, Design Size Nominal Capacity [W], 48636.82382
 Component Sizing Information, Controller:OutdoorAir, ZONE OFFICE WHOLEBUILDING - MD OFFICE A END_A - STORY GROUND PSZ-AC OA SYSTEM CONTROLLER, Maximum Outdoor Air Flow Rate [m3/s], 0.21118
 Component Sizing Information, Controller:OutdoorAir, ZONE OFFICE WHOLEBUILDING - MD OFFICE A END_A - STORY GROUND PSZ-AC OA SYSTEM CONTROLLER, Minimum Outdoor Air Flow Rate [m3/s], 9.02599E-003
 Component Sizing Information, AirLoopHVAC:UnitarySystem, ZONE OFFICE WHOLEBUILDING - MD OFFICE A END_A - STORY GROUND PSZ-AC UNITARY AC, Design Size Supply Air Flow Rate [m3/s], 0.21118
 Component Sizing Information, AirLoopHVAC:UnitarySystem, ZONE OFFICE WHOLEBUILDING - MD OFFICE A END_A - STORY GROUND PSZ-AC UNITARY AC, Design Size Heating Supply Air Flow Rate [m3/s], 0.21118
 Component Sizing Information, AirLoopHVAC:UnitarySystem, ZONE OFFICE WHOLEBUILDING - MD OFFICE A END_A - STORY GROUND PSZ-AC UNITARY AC, Design Size Cooling Supply Air Flow Rate [m3/s], 0.21118
 Component Sizing Information, AirLoopHVAC:UnitarySystem, ZONE OFFICE WHOLEBUILDING - MD OFFICE A END_A - STORY GROUND PSZ-AC UNITARY AC, User-Specified No Load Supply Air Flow Rate [m3/s], 0.00000
 Component Sizing Information, AirLoopHVAC:UnitarySystem, ZONE OFFICE WHOLEBUILDING - MD OFFICE A END_A - STORY GROUND PSZ-AC UNITARY AC, Design Size Nominal Cooling Capacity [W], 3495.73313
 Component Sizing Information, Coil:Heating:Water, ZONE OFFICE WHOLEBUILDING - MD OFFICE A END_A - STORY GROUND PSZ-AC WATER HTG COIL, Design Size Rated Capacity [W], 7789.75457
 Component Sizing Information, Coil:Heating:Water, ZONE OFFICE WHOLEBUILDING - MD OFFICE A END_A - STORY GROUND PSZ-AC WATER HTG COIL, Design Size Maximum Water Flow Rate [m3/s], 1.70384E-004
 Component Sizing Information, Coil:Heating:Water, ZONE OFFICE WHOLEBUILDING - MD OFFICE A END_A - STORY GROUND PSZ-AC WATER HTG COIL, Design Size U-Factor Times Area Value [W/K], 195.51506
Water Heating Coil Capacity Information,Coil:Heating:Water,ZONE OFFICE WHOLEBUILDING - MD OFFICE A END_A - STORY GROUND PSZ-AC WATER HTG COIL,8158.65
 Component Sizing Information, AirLoopHVAC:UnitarySystem, ZONE OFFICE WHOLEBUILDING - MD OFFICE A END_A - STORY GROUND PSZ-AC UNITARY AC, Design Size Nominal Heating Capacity [W], 7789.75457
 Component Sizing Information, AirLoopHVAC:UnitarySystem, ZONE OFFICE WHOLEBUILDING - MD OFFICE A END_A - STORY GROUND PSZ-AC UNITARY AC, Design Size Maximum Supply Air Temperature [C], 50.00000
 Component Sizing Information, AirLoopHVAC:UnitarySystem, ZONE OFFICE WHOLEBUILDING - MD OFFICE A END_A - STORY GROUND PSZ-AC UNITARY AC, User-Specified Maximum Supply Air Temperature [C], 80.00000
 Component Sizing Information, AirLoopHVAC:UnitarySystem, ZONE OFFICE WHOLEBUILDING - MD OFFICE A END_A - STORY GROUND PSZ-AC UNITARY AC, User-Specified Supplemental Heating Coil Nominal Capacity [W], 7789.75457
 Component Sizing Information, AirLoopHVAC:UnitarySystem, ZONE OFFICE WHOLEBUILDING - MD OFFICE A END_A - STORY GROUND PSZ-AC UNITARY AC, Fraction of Supply Air Flow That Goes Through the Controlling Zone, 1.00000
 Component Sizing Information, Coil:Cooling:DX:SingleSpeed, ZONE OFFICE WHOLEBUILDING - MD OFFICE A END_A - STORY GROUND PSZ-AC 1SPD DX AC CLG COIL, Design Size Rated Air Flow Rate [m3/s], 0.21118
 Component Sizing Information, Coil:Cooling:DX:SingleSpeed, ZONE OFFICE WHOLEBUILDING - MD OFFICE A END_A - STORY GROUND PSZ-AC 1SPD DX AC CLG COIL, Design Size Gross Rated Total Cooling Capacity [W], 3495.73313
 Component Sizing Information, Coil:Cooling:DX:SingleSpeed, ZONE OFFICE WHOLEBUILDING - MD OFFICE A END_A - STORY GROUND PSZ-AC 1SPD DX AC CLG COIL, Design Size Gross Rated Sensible Heat Ratio, 0.80066
 DX Cooling Coil Standard Rating Information, Coil:Cooling:DX:SingleSpeed, ZONE OFFICE WHOLEBUILDING - MD OFFICE A END_A - STORY GROUND PSZ-AC 1SPD DX AC CLG COIL, 3332.1, 2.51, 8.56, 9.83, 8.99, 9.37
 DX Cooling Coil Standard Rating Information, Coil:Cooling:DX:SingleSpeed, ZONE OFFICE WHOLEBUILDING - MD OFFICE A END_A - STORY GROUND PSZ-AC 1SPD DX AC CLG COIL, 3298.1, 2.42, 8.26, 9.46, 8.90,  
 Component Sizing Information, Fan:OnOff, ZONE OFFICE WHOLEBUILDING - MD OFFICE A END_A - STORY GROUND PSZ-AC FAN, Design Size Maximum Flow Rate [m3/s], 0.21118
 Component Sizing Information, Coil:Heating:Electric, ZONE OFFICE WHOLEBUILDING - MD OFFICE A END_A - STORY GROUND PSZ-AC ELECTRIC BACKUP HTG COIL, Design Size Nominal Capacity [W], 7789.75457
 Component Sizing Information, Controller:OutdoorAir, ZONE OFFICE WHOLEBUILDING - MD OFFICE A END_B - STORY GROUND PSZ-AC OA SYSTEM CONTROLLER, Maximum Outdoor Air Flow Rate [m3/s], 0.19903
 Component Sizing Information, Controller:OutdoorAir, ZONE OFFICE WHOLEBUILDING - MD OFFICE A END_B - STORY GROUND PSZ-AC OA SYSTEM CONTROLLER, Minimum Outdoor Air Flow Rate [m3/s], 9.02599E-003
 Component Sizing Information, AirLoopHVAC:UnitarySystem, ZONE OFFICE WHOLEBUILDING - MD OFFICE A END_B - STORY GROUND PSZ-AC UNITARY AC, Design Size Supply Air Flow Rate [m3/s], 0.19903
 Component Sizing Information, AirLoopHVAC:UnitarySystem, ZONE OFFICE WHOLEBUILDING - MD OFFICE A END_B - STORY GROUND PSZ-AC UNITARY AC, Design Size Heating Supply Air Flow Rate [m3/s], 0.19903
 Component Sizing Information, AirLoopHVAC:UnitarySystem, ZONE OFFICE WHOLEBUILDING - MD OFFICE A END_B - STORY GROUND PSZ-AC UNITARY AC, Design Size Cooling Supply Air Flow Rate [m3/s], 0.19903
 Component Sizing Information, AirLoopHVAC:UnitarySystem, ZONE OFFICE WHOLEBUILDING - MD OFFICE A END_B - STORY GROUND PSZ-AC UNITARY AC, User-Specified No Load Supply Air Flow Rate [m3/s], 0.00000
 Component Sizing Information, AirLoopHVAC:UnitarySystem, ZONE OFFICE WHOLEBUILDING - MD OFFICE A END_B - STORY GROUND PSZ-AC UNITARY AC, Design Size Nominal Cooling Capacity [W], 3294.58340
 Component Sizing Information, Coil:Heating:Water, ZONE OFFICE WHOLEBUILDING - MD OFFICE A END_B - STORY GROUND PSZ-AC WATER HTG COIL, Design Size Rated Capacity [W], 7362.71314
 Component Sizing Information, Coil:Heating:Water, ZONE OFFICE WHOLEBUILDING - MD OFFICE A END_B - STORY GROUND PSZ-AC WATER HTG COIL, Design Size Maximum Water Flow Rate [m3/s], 1.61043E-004
 Component Sizing Information, Coil:Heating:Water, ZONE OFFICE WHOLEBUILDING - MD OFFICE A END_B - STORY GROUND PSZ-AC WATER HTG COIL, Design Size U-Factor Times Area Value [W/K], 184.61732
Water Heating Coil Capacity Information,Coil:Heating:Water,ZONE OFFICE WHOLEBUILDING - MD OFFICE A END_B - STORY GROUND PSZ-AC WATER HTG COIL,7700.62
 Component Sizing Information, AirLoopHVAC:UnitarySystem, ZONE OFFICE WHOLEBUILDING - MD OFFICE A END_B - STORY GROUND PSZ-AC UNITARY AC, Design Size Nominal Heating Capacity [W], 7362.71314
 Component Sizing Information, AirLoopHVAC:UnitarySystem, ZONE OFFICE WHOLEBUILDING - MD OFFICE A END_B - STORY GROUND PSZ-AC UNITARY AC, Design Size Maximum Supply Air Temperature [C], 50.00000
 Component Sizing Information, AirLoopHVAC:UnitarySystem, ZONE OFFICE WHOLEBUILDING - MD OFFICE A END_B - STORY GROUND PSZ-AC UNITARY AC, User-Specified Maximum Supply Air Temperature [C], 80.00000
 Component Sizing Information, AirLoopHVAC:UnitarySystem, ZONE OFFICE WHOLEBUILDING - MD OFFICE A END_B - STORY GROUND PSZ-AC UNITARY AC, User-Specified Supplemental Heating Coil Nominal Capacity [W], 7362.71314
 Component Sizing Information, AirLoopHVAC:UnitarySystem, ZONE OFFICE WHOLEBUILDING - MD OFFICE A END_B - STORY GROUND PSZ-AC UNITARY AC, Fraction of Supply Air Flow That Goes Through the Controlling Zone, 1.00000
 Component Sizing Information, Coil:Cooling:DX:SingleSpeed, ZONE OFFICE WHOLEBUILDING - MD OFFICE A END_B - STORY GROUND PSZ-AC 1SPD DX AC CLG COIL, Design Size Rated Air Flow Rate [m3/s], 0.19903
 Component Sizing Information, Coil:Cooling:DX:SingleSpeed, ZONE OFFICE WHOLEBUILDING - MD OFFICE A END_B - STORY GROUND PSZ-AC 1SPD DX AC CLG COIL, Design Size Gross Rated Total Cooling Capacity [W], 3294.58340
 Component Sizing Information, Coil:Cooling:DX:SingleSpeed, ZONE OFFICE WHOLEBUILDING - MD OFFICE A END_B - STORY GROUND PSZ-AC 1SPD DX AC CLG COIL, Design Size Gross Rated Sensible Heat Ratio, 0.80066
 DX Cooling Coil Standard Rating Information, Coil:Cooling:DX:SingleSpeed, ZONE OFFICE WHOLEBUILDING - MD OFFICE A END_B - STORY GROUND PSZ-AC 1SPD DX AC CLG COIL, 3140.3, 2.51, 8.56, 9.83, 8.99, 9.37
 DX Cooling Coil Standard Rating Information, Coil:Cooling:DX:SingleSpeed, ZONE OFFICE WHOLEBUILDING - MD OFFICE A END_B - STORY GROUND PSZ-AC 1SPD DX AC CLG COIL, 3108.3, 2.42, 8.26, 9.46, 8.90,  
 Component Sizing Information, Fan:OnOff, ZONE OFFICE WHOLEBUILDING - MD OFFICE A END_B - STORY GROUND PSZ-AC FAN, Design Size Maximum Flow Rate [m3/s], 0.19903
 Component Sizing Information, Coil:Heating:Electric, ZONE OFFICE WHOLEBUILDING - MD OFFICE A END_B - STORY GROUND PSZ-AC ELECTRIC BACKUP HTG COIL, Design Size Nominal Capacity [W], 7362.71314
 Component Sizing Information, Controller:OutdoorAir, ZONE OFFICE WHOLEBUILDING - MD OFFICE B  - STORY GROUND PSZ-AC OA SYSTEM CONTROLLER, Maximum Outdoor Air Flow Rate [m3/s], 2.31231
 Component Sizing Information, Controller:OutdoorAir, ZONE OFFICE WHOLEBUILDING - MD OFFICE B  - STORY GROUND PSZ-AC OA SYSTEM CONTROLLER, Minimum Outdoor Air Flow Rate [m3/s], 0.48284
 Component Sizing Information, AirLoopHVAC:UnitarySystem, ZONE OFFICE WHOLEBUILDING - MD OFFICE B  - STORY GROUND PSZ-AC UNITARY AC, Design Size Supply Air Flow Rate [m3/s], 2.31231
 Component Sizing Information, AirLoopHVAC:UnitarySystem, ZONE OFFICE WHOLEBUILDING - MD OFFICE B  - STORY GROUND PSZ-AC UNITARY AC, Design Size Heating Supply Air Flow Rate [m3/s], 2.31231
 Component Sizing Information, AirLoopHVAC:UnitarySystem, ZONE OFFICE WHOLEBUILDING - MD OFFICE B  - STORY GROUND PSZ-AC UNITARY AC, Design Size Cooling Supply Air Flow Rate [m3/s], 2.31231
 Component Sizing Information, AirLoopHVAC:UnitarySystem, ZONE OFFICE WHOLEBUILDING - MD OFFICE B  - STORY GROUND PSZ-AC UNITARY AC, User-Specified No Load Supply Air Flow Rate [m3/s], 0.00000
 Component Sizing Information, AirLoopHVAC:UnitarySystem, ZONE OFFICE WHOLEBUILDING - MD OFFICE B  - STORY GROUND PSZ-AC UNITARY AC, Design Size Nominal Cooling Capacity [W], 38276.92746
 Component Sizing Information, Coil:Heating:Water, ZONE OFFICE WHOLEBUILDING - MD OFFICE B  - STORY GROUND PSZ-AC WATER HTG COIL, Design Size Rated Capacity [W], 105028.96330
 Component Sizing Information, Coil:Heating:Water, ZONE OFFICE WHOLEBUILDING - MD OFFICE B  - STORY GROUND PSZ-AC WATER HTG COIL, Design Size Maximum Water Flow Rate [m3/s], 2.29728E-003
 Component Sizing Information, Coil:Heating:Water, ZONE OFFICE WHOLEBUILDING - MD OFFICE B  - STORY GROUND PSZ-AC WATER HTG COIL, Design Size U-Factor Times Area Value [W/K], 2446.43025
Water Heating Coil Capacity Information,Coil:Heating:Water,ZONE OFFICE WHOLEBUILDING - MD OFFICE B  - STORY GROUND PSZ-AC WATER HTG COIL,98842.68
 Component Sizing Information, AirLoopHVAC:UnitarySystem, ZONE OFFICE WHOLEBUILDING - MD OFFICE B  - STORY GROUND PSZ-AC UNITARY AC, Design Size Nominal Heating Capacity [W], 105028.96330
[...]
 Warmup Convergence Information,ZONE OFFICE WHOLEBUILDING - MD OFFICE A END_B - STORY GROUND,SizingPeriod: KODIAK NOVEMBER .4% CONDNS DB=>MCWB,9.3563211301E-002,8.9094890740E-002,Pass,Pass,3.7473971733E-002,7.4891707453E-002,Pass,Pass
 Warmup Convergence Information,ZONE OFFICE WHOLEBUILDING - MD OFFICE B  - STORY GROUND,SizingPeriod: KODIAK NOVEMBER .4% CONDNS DB=>MCWB,2.7312716627E-002,2.6017886334E-002,Pass,Pass,7.7400013030E-003,1.3918725426E-002,Pass,Pass
 Warmup Convergence Information,ZONE OFFICE WHOLEBUILDING - MD OFFICE B END_A - STORY GROUND,SizingPeriod: KODIAK NOVEMBER .4% CONDNS DB=>MCWB,5.2881878829E-002,3.0705183101E-002,Pass,Pass,0.1638892419,0.9068855561,Pass,Pass
 Warmup Convergence Information,ZONE OFFICE WHOLEBUILDING - MD OFFICE B END_B - STORY GROUND,SizingPeriod: KODIAK NOVEMBER .4% CONDNS DB=>MCWB,4.1117260303E-002,4.0136920502E-002,Pass,Pass,0.8374496936,4.4131081409,Pass,Pass
 Warmup Convergence Information,ZONE OFFICE WHOLEBUILDING - MD OFFICE C  - STORY GROUND,SizingPeriod: KODIAK NOVEMBER .4% CONDNS DB=>MCWB,3.4125215218E-002,1.8765950316E-002,Pass,Pass,1.2293117020E-002,1.3483704468E-002,Pass,Pass
 Warmup Convergence Information,ZONE OFFICE WHOLEBUILDING - MD OFFICE C END_A - STORY GROUND,SizingPeriod: KODIAK NOVEMBER .4% CONDNS DB=>MCWB,5.3424846682E-002,2.9869912086E-002,Pass,Pass,2.3447627418E-002,7.3216918408E-002,Pass,Pass
 Warmup Convergence Information,ZONE OFFICE WHOLEBUILDING - MD OFFICE C END_B - STORY GROUND,SizingPeriod: KODIAK NOVEMBER .4% CONDNS DB=>MCWB,4.2108314277E-002,4.2871336256E-002,Pass,Pass,3.0697990968E-002,0.1115334609,Pass,Pass
Environment,KODIAK NOVEMBER .4% CONDNS WB=>MCDB,SizingPeriod:DesignDay,11/21,11/21,SummerDesignDay,1,N/A,N/A,N/A,N/A,N/A,N/A,Clark and Allen
Environment:Daylight Saving,No,SizingPeriod:DesignDay
Environment:Design Day Data,8.70,5.30,DefaultMultipliers,Wetbulb,8.20,{C},100917,320,5.0,0.00,No,No
Environment:Design Day Misc,325,1220.2,0.1488,6.4032E-002,1.0,14.25,-19.7,ASHRAETau
Environment:WarmupDays,  6
 Warmup Convergence Information,ZONE OFFICE WHOLEBUILDING - MD OFFICE A  - STORY GROUND,SizingPeriod: KODIAK NOVEMBER .4% CONDNS WB=>MCDB,6.5134693638E-002,7.6345452893E-002,Pass,Pass,0.3150453021,0.9212419195,Pass,Pass
 Warmup Convergence Information,ZONE OFFICE WHOLEBUILDING - MD OFFICE A END_A - STORY GROUND,SizingPeriod: KODIAK NOVEMBER .4% CONDNS WB=>MCDB,9.8986329100E-002,8.3127149038E-002,Pass,Pass,2.7127498633E-002,4.8501156305E-002,Pass,Pass
 Warmup Convergence Information,ZONE OFFICE WHOLEBUILDING - MD OFFICE A END_B - STORY GROUND,SizingPeriod: KODIAK NOVEMBER .4% CONDNS WB=>MCDB,9.4333434401E-002,8.9032520569E-002,Pass,Pass,3.9441078994E-002,8.1551860083E-002,Pass,Pass
 Warmup Convergence Information,ZONE OFFICE WHOLEBUILDING - MD OFFICE B  - STORY GROUND,SizingPeriod: KODIAK NOVEMBER .4% CONDNS WB=>MCDB,3.3295951052E-002,2.4552887507E-002,Pass,Pass,6.9785170062E-003,1.7588156885E-002,Pass,Pass
 Warmup Convergence Information,ZONE OFFICE WHOLEBUILDING - MD OFFICE B END_A - STORY GROUND,SizingPeriod: KODIAK NOVEMBER .4% CONDNS WB=>MCDB,5.3419500920E-002,3.1023877069E-002,Pass,Pass,0.1372767393,0.3408865109,Pass,Pass
 Warmup Convergence Information,ZONE OFFICE WHOLEBUILDING - MD OFFICE B END_B - STORY GROUND,SizingPeriod: KODIAK NOVEMBER .4% CONDNS WB=>MCDB,4.1457393432E-002,4.0078075326E-002,Pass,Pass,0.3512926232,0.8932677026,Pass,Pass
 Warmup Convergence Information,ZONE OFFICE WHOLEBUILDING - MD OFFICE C  - STORY GROUND,SizingPeriod: KODIAK NOVEMBER .4% CONDNS WB=>MCDB,3.4578789118E-002,1.8905980030E-002,Pass,Pass,1.1559964481E-002,1.3073137185E-002,Pass,Pass
 Warmup Convergence Information,ZONE OFFICE WHOLEBUILDING - MD OFFICE C END_A - STORY GROUND,SizingPeriod: KODIAK NOVEMBER .4% CONDNS WB=>MCDB,4.6645109434E-002,3.6603739794E-002,Pass,Pass,3.0019206210E-002,5.9664267576E-002,Pass,Pass
 Warmup Convergence Information,ZONE OFFICE WHOLEBUILDING - MD OFFICE C END_B - STORY GROUND,SizingPeriod: KODIAK NOVEMBER .4% CONDNS WB=>MCDB,3.5362374591E-002,4.5557851502E-002,Pass,Pass,3.4918804918E-002,6.3738698312E-002,Pass,Pass
Environment,KODIAK OCTOBER .4% CONDNS DB=>MCWB,SizingPeriod:DesignDay,10/21,10/21,SummerDesignDay,1,N/A,N/A,N/A,N/A,N/A,N/A,Clark and Allen
Environment:Daylight Saving,No,SizingPeriod:DesignDay
Environment:Design Day Data,12.60,6.20,DefaultMultipliers,Wetbulb,9.40,{C},100917,320,5.0,0.00,No,No
Environment:Design Day Misc,294,1191.2,0.1597,7.3069E-002,1.0,15.18,-10.4,ASHRAETau
Environment:WarmupDays,  7
 Warmup Convergence Information,ZONE OFFICE WHOLEBUILDING - MD OFFICE A  - STORY GROUND,SizingPeriod: KODIAK OCTOBER .4% CONDNS DB=>MCWB,2.2786844379E-002,3.9045351246E-002,Pass,Pass,0.1100968273,0.2958876455,Pass,Pass
 Warmup Convergence Information,ZONE OFFICE WHOLEBUILDING - MD OFFICE A END_A - STORY GROUND,SizingPeriod: KODIAK OCTOBER .4% CONDNS DB=>MCWB,5.6589898363E-002,7.0596706431E-002,Pass,Pass,0.1216254223,0.6689337834,Pass,Pass
 Warmup Convergence Information,ZONE OFFICE WHOLEBUILDING - MD OFFICE A END_B - STORY GROUND,SizingPeriod: KODIAK OCTOBER .4% CONDNS DB=>MCWB,5.7568554610E-002,9.1858365838E-002,Pass,Pass,0.1299358408,0.7503265629,Pass,Pass
 Warmup Convergence Information,ZONE OFFICE WHOLEBUILDING - MD OFFICE B  - STORY GROUND,SizingPeriod: KODIAK OCTOBER .4% CONDNS DB=>MCWB,1.2115475077E-002,3.1357133583E-002,Pass,Pass,4.3692560408E-002,0.2411103644,Pass,Pass
 Warmup Convergence Information,ZONE OFFICE WHOLEBUILDING - MD OFFICE B END_A - STORY GROUND,SizingPeriod: KODIAK OCTOBER .4% CONDNS DB=>MCWB,3.7873376412E-002,2.7004983909E-002,Pass,Pass,0.2628314801,1.2490780227,Pass,Pass
 Warmup Convergence Information,ZONE OFFICE WHOLEBUILDING - MD OFFICE B END_B - STORY GROUND,SizingPeriod: KODIAK OCTOBER .4% CONDNS DB=>MCWB,3.9223193212E-002,6.0664285211E-002,Pass,Pass,0.2606067312,0.8405887432,Pass,Pass
 Warmup Convergence Information,ZONE OFFICE WHOLEBUILDING - MD OFFICE C  - STORY GROUND,SizingPeriod: KODIAK OCTOBER .4% CONDNS DB=>MCWB,3.8120266846E-002,2.1515579917E-002,Pass,Pass,1.4883685092E-002,1.3251951697E-002,Pass,Pass
 Warmup Convergence Information,ZONE OFFICE WHOLEBUILDING - MD OFFICE C END_A - STORY GROUND,SizingPeriod: KODIAK OCTOBER .4% CONDNS DB=>MCWB,7.5910925655E-002,4.9446859270E-002,Pass,Pass,2.3482410942E-002,3.1628711070E-002,Pass,Pass
 Warmup Convergence Information,ZONE OFFICE WHOLEBUILDING - MD OFFICE C END_B - STORY GROUND,SizingPeriod: KODIAK OCTOBER .4% CONDNS DB=>MCWB,6.3156260543E-002,6.5668157010E-002,Pass,Pass,4.2065410094E-002,9.9540072002E-002,Pass,Pass
Environment,KODIAK OCTOBER .4% CONDNS WB=>MCDB,SizingPeriod:DesignDay,10/21,10/21,SummerDesignDay,1,N/A,N/A,N/A,N/A,N/A,N/A,Clark and Allen
Environment:Daylight Saving,No,SizingPeriod:DesignDay
Environment:Design Day Data,11.30,6.20,DefaultMultipliers,Wetbulb,10.70,{C},100917,320,5.0,0.00,No,No
Environment:Design Day Misc,294,1191.2,0.1597,7.3069E-002,1.0,15.18,-10.4,ASHRAETau
Environment:WarmupDays,  6
 Warmup Convergence Information,ZONE OFFICE WHOLEBUILDING - MD OFFICE A  - STORY GROUND,SizingPeriod: KODIAK OCTOBER .4% CONDNS WB=>MCDB,3.1126815689E-002,4.8504132693E-002,Pass,Pass,8.0646177390E-002,0.1143872515,Pass,Pass
 Warmup Convergence Information,ZONE OFFICE WHOLEBUILDING - MD OFFICE A END_A - STORY GROUND,SizingPeriod: KODIAK OCTOBER .4% CONDNS WB=>MCDB,6.7077648849E-002,7.7745016740E-002,Pass,Pass,8.3811545760E-002,0.2883267862,Pass,Pass
 Warmup Convergence Information,ZONE OFFICE WHOLEBUILDING - MD OFFICE A END_B - STORY GROUND,SizingPeriod: KODIAK OCTOBER .4% CONDNS WB=>MCDB,6.7968897741E-002,0.1009714093,Pass,Pass,8.4765834455E-002,0.2376639232,Pass,Pass
 Warmup Convergence Information,ZONE OFFICE WHOLEBUILDING - MD OFFICE B  - STORY GROUND,SizingPeriod: KODIAK OCTOBER .4% CONDNS WB=>MCDB,9.2464795574E-003,1.6607240019E-002,Pass,Pass,1.1689389813E-002,3.9479115083E-002,Pass,Pass
 Warmup Convergence Information,ZONE OFFICE WHOLEBUILDING - MD OFFICE B END_A - STORY GROUND,SizingPeriod: KODIAK OCTOBER .4% CONDNS WB=>MCDB,4.7464162327E-002,3.3285266816E-002,Pass,Pass,0.5171534045,2.2250720992,Pass,Pass
 Warmup Convergence Information,ZONE OFFICE WHOLEBUILDING - MD OFFICE B END_B - STORY GROUND,SizingPeriod: KODIAK OCTOBER .4% CONDNS WB=>MCDB,4.8333690106E-002,6.5296885595E-002,Pass,Pass,0.2999610318,1.0020064262,Pass,Pass
 Warmup Convergence Information,ZONE OFFICE WHOLEBUILDING - MD OFFICE C  - STORY GROUND,SizingPeriod: KODIAK OCTOBER .4% CONDNS WB=>MCDB,3.9118604523E-002,2.1630924463E-002,Pass,Pass,1.2759807725E-002,1.1976808029E-002,Pass,Pass
 Warmup Convergence Information,ZONE OFFICE WHOLEBUILDING - MD OFFICE C END_A - STORY GROUND,SizingPeriod: KODIAK OCTOBER .4% CONDNS WB=>MCDB,7.7336940856E-002,4.9633452164E-002,Pass,Pass,2.6158256307E-002,3.6004687492E-002,Pass,Pass
 Warmup Convergence Information,ZONE OFFICE WHOLEBUILDING - MD OFFICE C END_B - STORY GROUND,SizingPeriod: KODIAK OCTOBER .4% CONDNS WB=>MCDB,6.4064784315E-002,6.6245677221E-002,Pass,Pass,4.4414227946E-002,0.1000669518,Pass,Pass
Environment,KODIAK SEPTEMBER .4% CONDNS DB=>MCWB,SizingPeriod:DesignDay,09/21,09/21,SummerDesignDay,1,N/A,N/A,N/A,N/A,N/A,N/A,Clark and Allen
Environment:Daylight Saving,No,SizingPeriod:DesignDay
Environment:Design Day Data,18.00,6.40,DefaultMultipliers,Wetbulb,12.50,{C},100917,320,5.0,0.00,No,No
Environment:Design Day Misc,264,1151.1,0.1777,9.2179E-002,1.0,6.63,1.0,ASHRAETau
Environment:WarmupDays,  6
 Warmup Convergence Information,ZONE OFFICE WHOLEBUILDING - MD OFFICE A  - STORY GROUND,SizingPeriod: KODIAK SEPTEMBER .4% CONDNS DB=>MCWB,2.3960204218E-002,0.1085979761,Pass,Pass,1.0040127423,11.0142609288,Pass,Pass
 Warmup Convergence Information,ZONE OFFICE WHOLEBUILDING - MD OFFICE A END_A - STORY GROUND,SizingPeriod: KODIAK SEPTEMBER .4% CONDNS DB=>MCWB,1.2171760003E-002,2.1047037327E-002,Pass,Pass,0.1198754779,0.5433333220,Pass,Pass
 Warmup Convergence Information,ZONE OFFICE WHOLEBUILDING - MD OFFICE A END_B - STORY GROUND,SizingPeriod: KODIAK SEPTEMBER .4% CONDNS DB=>MCWB,1.2809649629E-002,2.6385126072E-002,Pass,Pass,5.8984461003E-002,9.3658693225E-002,Pass,Pass
 Warmup Convergence Information,ZONE OFFICE WHOLEBUILDING - MD OFFICE B  - STORY GROUND,SizingPeriod: KODIAK SEPTEMBER .4% CONDNS DB=>MCWB,3.0533228517E-002,9.2092541446E-002,Pass,Pass,8.5092466589E-002,0.3669154494,Pass,Pass
 Warmup Convergence Information,ZONE OFFICE WHOLEBUILDING - MD OFFICE B END_A - STORY GROUND,SizingPeriod: KODIAK SEPTEMBER .4% CONDNS DB=>MCWB,1.4677073926E-002,5.8923050633E-002,Pass,Pass,0.1057351416,0.4653354124,Pass,Pass
 Warmup Convergence Information,ZONE OFFICE WHOLEBUILDING - MD OFFICE B END_B - STORY GROUND,SizingPeriod: KODIAK SEPTEMBER .4% CONDNS DB=>MCWB,1.1368609289E-002,3.8733628906E-002,Pass,Pass,6.9579029060E-002,0.3429330168,Pass,Pass
 Warmup Convergence Information,ZONE OFFICE WHOLEBUILDING - MD OFFICE C  - STORY GROUND,SizingPeriod: KODIAK SEPTEMBER .4% CONDNS DB=>MCWB,1.3206446501E-002,2.1167596284E-002,Pass,Pass,4.1539986141E-002,6.3168500940E-002,Pass,Pass
 Warmup Convergence Information,ZONE OFFICE WHOLEBUILDING - MD OFFICE C END_A - STORY GROUND,SizingPeriod: KODIAK SEPTEMBER .4% CONDNS DB=>MCWB,3.2050736121E-002,3.2736222321E-002,Pass,Pass,0.1569820444,0.5217668228,Pass,Pass
 Warmup Convergence Information,ZONE OFFICE WHOLEBUILDING - MD OFFICE C END_B - STORY GROUND,SizingPeriod: KODIAK SEPTEMBER .4% CONDNS DB=>MCWB,3.2953696961E-002,6.2242218930E-002,Pass,Pass,8.2079955267E-002,0.1749720535,Pass,Pass
Environment,KODIAK SEPTEMBER .4% CONDNS WB=>MCDB,SizingPeriod:DesignDay,09/21,09/21,SummerDesignDay,1,N/A,N/A,N/A,N/A,N/A,N/A,Clark and Allen
Environment:Daylight Saving,No,SizingPeriod:DesignDay
Environment:Design Day Data,16.20,6.40,DefaultMultipliers,Wetbulb,13.80,{C},100917,320,5.0,0.00,No,No
Environment:Design Day Misc,264,1151.1,0.1777,9.2179E-002,1.0,6.63,1.0,ASHRAETau
Environment:WarmupDays,  6
 Warmup Convergence Information,ZONE OFFICE WHOLEBUILDING - MD OFFICE A  - STORY GROUND,SizingPeriod: KODIAK SEPTEMBER .4% CONDNS WB=>MCDB,1.9511092043E-002,7.3201527283E-002,Pass,Pass,0.3716919796,1.2123495340,Pass,Pass
 Warmup Convergence Information,ZONE OFFICE WHOLEBUILDING - MD OFFICE A END_A - STORY GROUND,SizingPeriod: KODIAK SEPTEMBER .4% CONDNS WB=>MCDB,2.1281263734E-002,3.3651492377E-002,Pass,Pass,8.5726154210E-002,0.1671010956,Pass,Pass
 Warmup Convergence Information,ZONE OFFICE WHOLEBUILDING - MD OFFICE A END_B - STORY GROUND,SizingPeriod: KODIAK SEPTEMBER .4% CONDNS WB=>MCDB,2.3436126841E-002,4.9955335033E-002,Pass,Pass,9.0199079366E-002,0.1648860247,Pass,Pass
 Warmup Convergence Information,ZONE OFFICE WHOLEBUILDING - MD OFFICE B  - STORY GROUND,SizingPeriod: KODIAK SEPTEMBER .4% CONDNS WB=>MCDB,2.4327626762E-002,7.8878926210E-002,Pass,Pass,5.0685910732E-002,0.2571385802,Pass,Pass
 Warmup Convergence Information,ZONE OFFICE WHOLEBUILDING - MD OFFICE B END_A - STORY GROUND,SizingPeriod: KODIAK SEPTEMBER .4% CONDNS WB=>MCDB,9.1550285696E-003,1.4521769322E-002,Pass,Pass,0.1262201736,0.4929404979,Pass,Pass
 Warmup Convergence Information,ZONE OFFICE WHOLEBUILDING - MD OFFICE B END_B - STORY GROUND,SizingPeriod: KODIAK SEPTEMBER .4% CONDNS WB=>MCDB,9.7437974656E-003,1.9188830942E-002,Pass,Pass,0.1558306022,0.6601470436,Pass,Pass
 Warmup Convergence Information,ZONE OFFICE WHOLEBUILDING - MD OFFICE C  - STORY GROUND,SizingPeriod: KODIAK SEPTEMBER .4% CONDNS WB=>MCDB,2.3776782034E-002,2.6713097151E-002,Pass,Pass,3.8407342757E-002,7.7772165334E-002,Pass,Pass
 Warmup Convergence Information,ZONE OFFICE WHOLEBUILDING - MD OFFICE C END_A - STORY GROUND,SizingPeriod: KODIAK SEPTEMBER .4% CONDNS WB=>MCDB,4.3670989589E-002,3.5997195918E-002,Pass,Pass,0.2120743590,1.5176545185,Pass,Pass
 Warmup Convergence Information,ZONE OFFICE WHOLEBUILDING - MD OFFICE C END_B - STORY GROUND,SizingPeriod: KODIAK SEPTEMBER .4% CONDNS WB=>MCDB,4.5664581536E-002,7.4809030681E-002,Pass,Pass,9.2812858432E-002,0.2140954315,Pass,Pass
Environment,KODIAK ANN CLG .4% CONDNS DB=>MWB HVAC Sizing Pass 1,SizingPeriod:DesignDay,08/21,08/21,SummerDesignDay,1,N/A,N/A,N/A,N/A,N/A,N/A,Clark and Allen
Environment:Daylight Saving,No,SizingPeriod:DesignDay
Environment,KODIAK ANN CLG .4% CONDNS WB=>MDB HVAC Sizing Pass 1,SizingPeriod:DesignDay,08/21,08/21,SummerDesignDay,1,N/A,N/A,N/A,N/A,N/A,N/A,Clark and Allen
Environment:Daylight Saving,No,SizingPeriod:DesignDay
Environment,KODIAK ANN HTG 99.6% CONDNS DB HVAC Sizing Pass 1,SizingPeriod:DesignDay,01/21,01/21,WinterDesignDay,1,N/A,N/A,N/A,N/A,N/A,N/A,Clark and Allen
Environment:Daylight Saving,No,SizingPeriod:DesignDay
Environment,KODIAK APRIL .4% CONDNS DB=>MCWB HVAC Sizing Pass 1,SizingPeriod:DesignDay,04/21,04/21,SummerDesignDay,1,N/A,N/A,N/A,N/A,N/A,N/A,Clark and Allen
Environment:Daylight Saving,No,SizingPeriod:DesignDay
Environment,KODIAK APRIL .4% CONDNS WB=>MCDB HVAC Sizing Pass 1,SizingPeriod:DesignDay,04/21,04/21,SummerDesignDay,1,N/A,N/A,N/A,N/A,N/A,N/A,Clark and Allen
Environment:Daylight Saving,No,SizingPeriod:DesignDay
Environment,KODIAK AUGUST .4% CONDNS DB=>MCWB HVAC Sizing Pass 1,SizingPeriod:DesignDay,08/21,08/21,SummerDesignDay,1,N/A,N/A,N/A,N/A,N/A,N/A,Clark and Allen
Environment:Daylight Saving,No,SizingPeriod:DesignDay
Environment,KODIAK AUGUST .4% CONDNS WB=>MCDB HVAC Sizing Pass 1,SizingPeriod:DesignDay,08/21,08/21,SummerDesignDay,1,N/A,N/A,N/A,N/A,N/A,N/A,Clark and Allen
Environment:Daylight Saving,No,SizingPeriod:DesignDay
Environment,KODIAK DECEMBER .4% CONDNS DB=>MCWB HVAC Sizing Pass 1,SizingPeriod:DesignDay,12/21,12/21,SummerDesignDay,1,N/A,N/A,N/A,N/A,N/A,N/A,Clark and Allen
Environment:Daylight Saving,No,SizingPeriod:DesignDay
Environment,KODIAK DECEMBER .4% CONDNS WB=>MCDB HVAC Sizing Pass 1,SizingPeriod:DesignDay,12/21,12/21,SummerDesignDay,1,N/A,N/A,N/A,N/A,N/A,N/A,Clark and Allen
Environment:Daylight Saving,No,SizingPeriod:DesignDay
Environment,KODIAK FEBRUARY .4% CONDNS DB=>MCWB HVAC Sizing Pass 1,SizingPeriod:DesignDay,02/21,02/21,SummerDesignDay,1,N/A,N/A,N/A,N/A,N/A,N/A,Clark and Allen
Environment:Daylight Saving,No,SizingPeriod:DesignDay
Environment,KODIAK FEBRUARY .4% CONDNS WB=>MCDB HVAC Sizing Pass 1,SizingPeriod:DesignDay,02/21,02/21,SummerDesignDay,1,N/A,N/A,N/A,N/A,N/A,N/A,Clark and Allen
Environment:Daylight Saving,No,SizingPeriod:DesignDay
Environment,KODIAK JANUARY .4% CONDNS DB=>MCWB HVAC Sizing Pass 1,SizingPeriod:DesignDay,01/21,01/21,SummerDesignDay,1,N/A,N/A,N/A,N/A,N/A,N/A,Clark and Allen
Environment:Daylight Saving,No,SizingPeriod:DesignDay
Environment,KODIAK JANUARY .4% CONDNS WB=>MCDB HVAC Sizing Pass 1,SizingPeriod:DesignDay,01/21,01/21,SummerDesignDay,1,N/A,N/A,N/A,N/A,N/A,N/A,Clark and Allen
Environment:Daylight Saving,No,SizingPeriod:DesignDay
Environment,KODIAK JULY .4% CONDNS DB=>MCWB HVAC Sizing Pass 1,SizingPeriod:DesignDay,07/21,07/21,SummerDesignDay,1,N/A,N/A,N/A,N/A,N/A,N/A,Clark and Allen
Environment:Daylight Saving,No,SizingPeriod:DesignDay
Environment,KODIAK JULY .4% CONDNS WB=>MCDB HVAC Sizing Pass 1,SizingPeriod:DesignDay,07/21,07/21,SummerDesignDay,1,N/A,N/A,N/A,N/A,N/A,N/A,Clark and Allen
Environment:Daylight Saving,No,SizingPeriod:DesignDay
Environment,KODIAK JUNE .4% CONDNS DB=>MCWB HVAC Sizing Pass 1,SizingPeriod:DesignDay,06/21,06/21,SummerDesignDay,1,N/A,N/A,N/A,N/A,N/A,N/A,Clark and Allen
Environment:Daylight Saving,No,SizingPeriod:DesignDay
Environment,KODIAK JUNE .4% CONDNS WB=>MCDB HVAC Sizing Pass 1,SizingPeriod:DesignDay,06/21,06/21,SummerDesignDay,1,N/A,N/A,N/A,N/A,N/A,N/A,Clark and Allen
Environment:Daylight Saving,No,SizingPeriod:DesignDay
Environment,KODIAK MARCH .4% CONDNS DB=>MCWB HVAC Sizing Pass 1,SizingPeriod:DesignDay,03/21,03/21,SummerDesignDay,1,N/A,N/A,N/A,N/A,N/A,N/A,Clark and Allen
Environment:Daylight Saving,No,SizingPeriod:DesignDay
Environment,KODIAK MARCH .4% CONDNS WB=>MCDB HVAC Sizing Pass 1,SizingPeriod:DesignDay,03/21,03/21,SummerDesignDay,1,N/A,N/A,N/A,N/A,N/A,N/A,Clark and Allen
Environment:Daylight Saving,No,SizingPeriod:DesignDay
Environment,KODIAK MAY .4% CONDNS DB=>MCWB HVAC Sizing Pass 1,SizingPeriod:DesignDay,05/21,05/21,SummerDesignDay,1,N/A,N/A,N/A,N/A,N/A,N/A,Clark and Allen
Environment:Daylight Saving,No,SizingPeriod:DesignDay
Environment,KODIAK MAY .4% CONDNS WB=>MCDB HVAC Sizing Pass 1,SizingPeriod:DesignDay,05/21,05/21,SummerDesignDay,1,N/A,N/A,N/A,N/A,N/A,N/A,Clark and Allen
Environment:Daylight Saving,No,SizingPeriod:DesignDay
Environment,KODIAK NOVEMBER .4% CONDNS DB=>MCWB HVAC Sizing Pass 1,SizingPeriod:DesignDay,11/21,11/21,SummerDesignDay,1,N/A,N/A,N/A,N/A,N/A,N/A,Clark and Allen
Environment:Daylight Saving,No,SizingPeriod:DesignDay
Environment,KODIAK NOVEMBER .4% CONDNS WB=>MCDB HVAC Sizing Pass 1,SizingPeriod:DesignDay,11/21,11/21,SummerDesignDay,1,N/A,N/A,N/A,N/A,N/A,N/A,Clark and Allen
Environment:Daylight Saving,No,SizingPeriod:DesignDay
Environment,KODIAK OCTOBER .4% CONDNS DB=>MCWB HVAC Sizing Pass 1,SizingPeriod:DesignDay,10/21,10/21,SummerDesignDay,1,N/A,N/A,N/A,N/A,N/A,N/A,Clark and Allen
Environment:Daylight Saving,No,SizingPeriod:DesignDay
Environment,KODIAK OCTOBER .4% CONDNS WB=>MCDB HVAC Sizing Pass 1,SizingPeriod:DesignDay,10/21,10/21,SummerDesignDay,1,N/A,N/A,N/A,N/A,N/A,N/A,Clark and Allen
Environment:Daylight Saving,No,SizingPeriod:DesignDay
Environment,KODIAK SEPTEMBER .4% CONDNS DB=>MCWB HVAC Sizing Pass 1,SizingPeriod:DesignDay,09/21,09/21,SummerDesignDay,1,N/A,N/A,N/A,N/A,N/A,N/A,Clark and Allen
Environment:Daylight Saving,No,SizingPeriod:DesignDay
Environment,KODIAK SEPTEMBER .4% CONDNS WB=>MCDB HVAC Sizing Pass 1,SizingPeriod:DesignDay,09/21,09/21,SummerDesignDay,1,N/A,N/A,N/A,N/A,N/A,N/A,Clark and Allen
Environment:Daylight Saving,No,SizingPeriod:DesignDay
! <Program Control Information:Threads/Parallel Sims>, Threading Supported,Maximum Number of Threads, Env Set Threads (OMP_NUM_THREADS), EP Env Set Threads (EP_OMP_NUM_THREADS), IDF Set Threads, Number of Threads Used (Interior Radiant Exchange), Number Nominal Surfaces, Number Parallel Sims
Program Control:Threads/Parallel Sims, No,1, N/A, N/A, N/A, N/A, N/A, N/A
End of Data
