Program Version,EnergyPlus, Version 22.2.0-aa78da9668, YMD=2023.04.25 21:09
! <Version>, Version ID
 Version, 22.2
! <Timesteps per Hour>, #TimeSteps, Minutes per TimeStep {minutes}
 Timesteps per Hour,  6, 10
! <System Convergence Limits>, Minimum System TimeStep {minutes}, Max HVAC Iterations, Minimum Plant Iterations, Maximum Plant Iterations
 System Convergence Limits, 1, 20, 2, 8
! <Simulation Control>, Do Zone Sizing, Do System Sizing, Do Plant Sizing, Do Design Days, Do Weather Simulation, Do HVAC Sizing Simulation
 Simulation Control, Yes, Yes, Yes, No, Yes, No
! <Performance Precision Tradeoffs>, Use Coil Direct Simulation, Zone Radiant Exchange Algorithm, Override Mode, Number of Timestep In Hour, Force Euler Method, Minimum Number of Warmup Days, Force Suppress All Begin Environment Resets, Minimum System Timestep, MaxZoneTempDiff, MaxAllowedDelTemp
 Performance Precision Tradeoffs, No, ScriptF, Normal, 6, No, 1, No, 1.0, 0.300, 2.0000E-003
! <Output Reporting Tolerances>, Tolerance for Time Heating Setpoint Not Met, Tolerance for Zone Cooling Setpoint Not Met Time
 Output Reporting Tolerances, 0.556, 0.556, 
! <Site:GroundTemperature:BuildingSurface>,Jan{C},Feb{C},Mar{C},Apr{C},May{C},Jun{C},Jul{C},Aug{C},Sep{C},Oct{C},Nov{C},Dec{C}
 Site:GroundTemperature:BuildingSurface,  18.00,  18.00,  18.00,  18.00,  18.00,  18.00,  18.00,  18.00,  18.00,  18.00,  18.00,  18.00
! <Site:GroundTemperature:FCfactorMethod>,Jan{C},Feb{C},Mar{C},Apr{C},May{C},Jun{C},Jul{C},Aug{C},Sep{C},Oct{C},Nov{C},Dec{C}
 Site:GroundTemperature:FCfactorMethod,  -3.10, -17.70, -19.30, -17.60, -15.40, -10.30,   0.70,  10.60,  16.00,  16.90,  14.20,   6.70
! <Site:GroundTemperature:Shallow>,Jan{C},Feb{C},Mar{C},Apr{C},May{C},Jun{C},Jul{C},Aug{C},Sep{C},Oct{C},Nov{C},Dec{C}
 Site:GroundTemperature:Shallow,  13.00,  13.00,  13.00,  13.00,  13.00,  13.00,  13.00,  13.00,  13.00,  13.00,  13.00,  13.00
! <Site:GroundTemperature:Deep>,Jan{C},Feb{C},Mar{C},Apr{C},May{C},Jun{C},Jul{C},Aug{C},Sep{C},Oct{C},Nov{C},Dec{C}
 Site:GroundTemperature:Deep,  16.00,  16.00,  16.00,  16.00,  16.00,  16.00,  16.00,  16.00,  16.00,  16.00,  16.00,  16.00
! <Site:GroundReflectance>,Jan{dimensionless},Feb{dimensionless},Mar{dimensionless},Apr{dimensionless},May{dimensionless},Jun{dimensionless},Jul{dimensionless},Aug{dimensionless},Sep{dimensionless},Oct{dimensionless},Nov{dimensionless},Dec{dimensionless}
 Site:GroundReflectance,  0.20,  0.20,  0.20,  0.20,  0.20,  0.20,  0.20,  0.20,  0.20,  0.20,  0.20,  0.20
! <Site:GroundReflectance:SnowModifier>, Normal, Daylighting {dimensionless}
 Site:GroundReflectance:SnowModifier,   1.000,   1.000
! <Site:GroundReflectance:Snow>,Jan{dimensionless},Feb{dimensionless},Mar{dimensionless},Apr{dimensionless},May{dimensionless},Jun{dimensionless},Jul{dimensionless},Aug{dimensionless},Sep{dimensionless},Oct{dimensionless},Nov{dimensionless},Dec{dimensionless}
 Site:GroundReflectance:Snow,  0.20,  0.20,  0.20,  0.20,  0.20,  0.20,  0.20,  0.20,  0.20,  0.20,  0.20,  0.20
! <Site:GroundReflectance:Snow:Daylighting>,Jan{dimensionless},Feb{dimensionless},Mar{dimensionless},Apr{dimensionless},May{dimensionless},Jun{dimensionless},Jul{dimensionless},Aug{dimensionless},Sep{dimensionless},Oct{dimensionless},Nov{dimensionless},Dec{dimensionless}
 Site:GroundReflectance:Snow:Daylighting,  0.20,  0.20,  0.20,  0.20,  0.20,  0.20,  0.20,  0.20,  0.20,  0.20,  0.20,  0.20
! <Environment:Weather Station>,Wind Sensor Height Above Ground {m},Wind Speed Profile Exponent {},Wind Speed Profile Boundary Layer Thickness {m},Air Temperature Sensor Height Above Ground {m},Wind Speed Modifier Coefficient-Internal,Temperature Modifier Coefficient-Internal
Environment:Weather Station,10.000,0.140,270.000,1.500,1.586,9.750E-003
! <Site:Location>, Location Name, Latitude {N+/S- Deg}, Longitude {E+/W- Deg},  Time Zone Number {GMT+/-}, Elevation {m},  Standard Pressure at Elevation {Pa}, Standard RhoAir at Elevation
Site:Location,Kodiak AK USA customized weather file WMO#=703500,57.75,-152.49,-9.00,34.00,100917,1.1995
! <Site Water Mains Temperature Information>,Calculation Method{},Water Mains Temperature Schedule Name{},Annual Average Outdoor Air Temperature{C},Maximum Difference In Monthly Average Outdoor Air Temperatures{deltaC},Fixed Default Water Mains Temperature{C}
Site Water Mains Temperature Information,Correlation,NA,-1.53,36.20,NA
! <Building Information>, Building Name,North Axis {deg},Terrain,  Loads Convergence Tolerance Value,Temperature Convergence Tolerance Value,  Solar Distribution,Maximum Number of Warmup Days,Minimum Number of Warmup Days
 Building Information,DOE Ref 1980-2004|Warehouse,0.000,City,4.00000E-002,0.20000,FullInteriorAndExterior,25,6
! <Inside Convection Algorithm>, Algorithm {Simple | TARP | CeilingDiffuser | AdaptiveConvectionAlgorithm}
Inside Convection Algorithm,TARP
! <Outside Convection Algorithm>, Algorithm {SimpleCombined | TARP | MoWitt | DOE-2 | AdaptiveConvectionAlgorithm}
Outside Convection Algorithm,TARP
! <Sky Radiance Distribution>, Value {Anisotropic}
Sky Radiance Distribution,Anisotropic
! <Zone Air Solution Algorithm>, Value {ThirdOrderBackwardDifference | AnalyticalSolution | EulerMethod}
 Zone Air Solution Algorithm, ThirdOrderBackwardDifference
! <Zone Air Carbon Dioxide Balance Simulation>, Simulation {Yes/No}, Carbon Dioxide Concentration
 Zone Air Carbon Dioxide Balance Simulation, No,N/A
! <Zone Air Generic Contaminant Balance Simulation>, Simulation {Yes/No}, Generic Contaminant Concentration
 Zone Air Generic Contaminant Balance Simulation, No,N/A
! <Zone Air Mass Flow Balance Simulation>, Enforce Mass Balance, Adjust Zone Mixing and Return {AdjustMixingOnly | AdjustReturnOnly | AdjustMixingThenReturn | AdjustReturnThenMixing | None}, Adjust Zone Infiltration {AddInfiltration | AdjustInfiltration | None}, Infiltration Zones {MixingSourceZonesOnly | AllZones}
 Zone Air Mass Flow Balance Simulation, No,N/A,N/A,N/A
! <HVACSystemRootFindingAlgorithm>, Value {RegulaFalsi | Bisection | BisectionThenRegulaFalsi | RegulaFalsiThenBisection}
 HVACSystemRootFindingAlgorithm, RegulaFalsi
! <Environment:Site Atmospheric Variation>,Wind Speed Profile Exponent {},Wind Speed Profile Boundary Layer Thickness {m},Air Temperature Gradient Coefficient {K/m}
Environment:Site Atmospheric Variation,0.330,460.000,6.500000E-003
! <Surface Geometry>,Starting Corner,Vertex Input Direction,Coordinate System,Daylight Reference Point Coordinate System,Rectangular (Simple) Surface Coordinate System
 Surface Geometry,UpperLeftCorner,Counterclockwise,RelativeCoordinateSystem,RelativeCoordinateSystem,RelativeToZoneOrigin
! <Surface Heat Transfer Algorithm>, Value {CTF - ConductionTransferFunction | EMPD - MoisturePenetrationDepthConductionTransferFunction | CondFD - ConductionFiniteDifference | HAMT - CombinedHeatAndMoistureFiniteElement} - Description,Inside Surface Max Temperature Limit{C}, Surface Convection Coefficient Lower Limit {W/m2-K}, Surface Convection Coefficient Upper Limit {W/m2-K}
Surface Heat Transfer Algorithm, CTF - ConductionTransferFunction,200,0.10,1000.0
! <Shading Summary>, Number of Fixed Detached Shades, Number of Building Detached Shades, Number of Attached Shades
 Shading Summary,0,0,0
! <Zone Summary>, Number of Zones, Number of Zone Surfaces, Number of SubSurfaces
 Zone Summary,15,115,16
! <Zone Information>,Zone Name,North Axis {deg},Origin X-Coordinate {m},Origin Y-Coordinate {m},Origin Z-Coordinate {m},Centroid X-Coordinate {m},Centroid Y-Coordinate {m},Centroid Z-Coordinate {m},Type,Zone Multiplier,Zone List Multiplier,Minimum X {m},Maximum X {m},Minimum Y {m},Maximum Y {m},Minimum Z {m},Maximum Z {m},Ceiling Height {m},Volume {m3},Zone Inside Convection Algorithm {Simple-Detailed-CeilingDiffuser-TrombeWall},Zone Outside Convection Algorithm {Simple-Detailed-Tarp-MoWitt-DOE-2-BLAST}, Floor Area {m2},Exterior Gross Wall Area {m2},Exterior Net Wall Area {m2},Exterior Window Area {m2}, Number of Surfaces, Number of SubSurfaces, Number of Shading SubSurfaces,  Part of Total Building Area
 Zone Information, ZONE WAREHOUSE BULK A  - STORY GROUND,0.0,-12.23,-11.20,0.00,-3.38,-8.91,4.57,1,1,1,-12.23,5.47,-11.20,-6.63,0.00,9.14,9.14,739.81,TARP,TARP,80.91,161.81,153.72,8.09,6,1,0,Yes
 Zone Information, ZONE WAREHOUSE BULK A END_A - STORY GROUND,0.0,-16.80,-11.20,0.00,-14.51,-8.91,4.57,1,1,1,-16.80,-12.23,-11.20,-6.63,0.00,9.14,9.14,191.14,TARP,TARP,20.90,83.61,79.43,4.18,6,2,0,Yes
 Zone Information, ZONE WAREHOUSE BULK B  - STORY GROUND,0.0,-12.23,-6.63,0.00,-3.38,1.12E-014,4.57,1,1,1,-12.23,5.47,-6.63,6.63,0.00,9.14,9.14,2144.71,TARP,TARP,234.55,0.00,0.00,0.00,6,0,0,Yes
 Zone Information, ZONE WAREHOUSE BULK B END_A - STORY GROUND,0.0,-16.80,-6.63,0.00,-14.51,1.12E-014,4.57,1,1,1,-16.80,-12.23,-6.63,6.63,0.00,9.14,9.14,554.11,TARP,TARP,60.60,121.20,115.14,6.06,6,1,0,Yes
 Zone Information, ZONE WAREHOUSE BULK C  - STORY GROUND,0.0,-12.23,6.63,0.00,-3.38,8.91,4.57,1,1,1,-12.23,5.47,6.63,11.20,0.00,9.14,9.14,739.81,TARP,TARP,80.91,161.81,153.72,8.09,6,1,0,Yes
 Zone Information, ZONE WAREHOUSE BULK C END_A - STORY GROUND,0.0,-16.80,6.63,0.00,-14.51,8.91,4.57,1,1,1,-16.80,-12.23,6.63,11.20,0.00,9.14,9.14,191.14,TARP,TARP,20.90,83.61,79.43,4.18,6,2,0,Yes
 Zone Information, ZONE WAREHOUSE FINE A  - STORY GROUND,0.0,7.12,-11.20,0.00,9.67,-8.91,4.57,1,1,1,7.12,12.23,-11.20,-6.63,0.00,9.14,9.14,213.66,TARP,TARP,23.37,46.73,44.40,2.34,6,1,0,Yes
 Zone Information, ZONE WAREHOUSE FINE A END_B - STORY GROUND,0.0,12.23,-11.20,0.00,14.51,-8.91,4.57,1,1,1,12.23,16.80,-11.20,-6.63,0.00,9.14,9.14,191.14,TARP,TARP,20.90,83.61,79.43,4.18,6,2,0,Yes
 Zone Information, ZONE WAREHOUSE FINE B  - STORY GROUND,0.0,7.12,-6.63,0.00,9.67,1.12E-014,4.57,1,1,1,7.12,12.23,-6.63,6.63,0.00,9.14,9.14,619.40,TARP,TARP,67.74,0.00,0.00,0.00,6,0,0,Yes
 Zone Information, ZONE WAREHOUSE FINE B END_B - STORY GROUND,0.0,12.23,-6.63,0.00,14.51,1.11E-014,4.57,1,1,1,12.23,16.80,-6.63,6.63,0.00,9.14,9.14,554.11,TARP,TARP,60.60,121.20,115.14,6.06,6,1,0,Yes
 Zone Information, ZONE WAREHOUSE FINE C  - STORY GROUND,0.0,7.12,6.63,0.00,9.67,8.91,4.57,1,1,1,7.12,12.23,6.63,11.20,0.00,9.14,9.14,213.66,TARP,TARP,23.37,46.73,44.40,2.34,6,1,0,Yes
 Zone Information, ZONE WAREHOUSE FINE C END_B - STORY GROUND,0.0,12.23,6.63,0.00,14.51,8.91,4.57,1,1,1,12.23,16.80,6.63,11.20,0.00,9.14,9.14,191.14,TARP,TARP,20.90,83.61,79.43,4.18,6,2,0,Yes
 Zone Information, ZONE WAREHOUSE OFFICE A  - STORY GROUND,0.0,5.47,-11.20,0.00,6.29,-8.91,4.57,1,1,1,5.47,7.12,-11.20,-6.63,0.00,9.14,9.14,68.82,TARP,TARP,7.53,15.05,14.30,0.75,6,1,0,Yes
 Zone Information, ZONE WAREHOUSE OFFICE B  - STORY GROUND,0.0,5.47,-6.63,0.00,6.29,1.12E-014,4.57,1,1,1,5.47,7.12,-6.63,6.63,0.00,9.14,9.14,199.52,TARP,TARP,21.82,0.00,0.00,0.00,6,0,0,Yes
 Zone Information, ZONE WAREHOUSE OFFICE C  - STORY GROUND,0.0,5.47,6.63,0.00,6.29,8.91,4.57,1,1,1,5.47,7.12,6.63,11.20,0.00,9.14,9.14,68.82,TARP,TARP,7.53,15.05,14.30,0.75,6,1,0,Yes
! <Zone Internal Gains Nominal>,Zone Name, Floor Area {m2},# Occupants,Area per Occupant {m2/person},Occupant per Area {person/m2},Interior Lighting {W/m2},Electric Load {W/m2},Gas Load {W/m2},Other Load {W/m2},Hot Water Eq {W/m2},Steam Equipment {W/m2},Sum Loads per Area {W/m2},Outdoor Controlled Baseboard Heat
 Zone Internal Gains Nominal, ZONE WAREHOUSE BULK A  - STORY GROUND,80.91,0.0,N/A,0.000,3.340,2.560,0.000,0.000,0.000,0.000,5.900,No
 Zone Internal Gains Nominal, ZONE WAREHOUSE BULK A END_A - STORY GROUND,20.90,0.0,N/A,0.000,3.340,2.560,0.000,0.000,0.000,0.000,5.900,No
 Zone Internal Gains Nominal, ZONE WAREHOUSE BULK B  - STORY GROUND,234.55,0.0,N/A,0.000,3.340,2.560,0.000,0.000,0.000,0.000,5.900,No
 Zone Internal Gains Nominal, ZONE WAREHOUSE BULK B END_A - STORY GROUND,60.60,0.0,N/A,0.000,3.340,2.560,0.000,0.000,0.000,0.000,5.900,No
 Zone Internal Gains Nominal, ZONE WAREHOUSE BULK C  - STORY GROUND,80.91,0.0,N/A,0.000,3.340,2.560,0.000,0.000,0.000,0.000,5.900,No
 Zone Internal Gains Nominal, ZONE WAREHOUSE BULK C END_A - STORY GROUND,20.90,0.0,N/A,0.000,3.340,2.560,0.000,0.000,0.000,0.000,5.900,No
 Zone Internal Gains Nominal, ZONE WAREHOUSE FINE A  - STORY GROUND,23.37,0.0,N/A,0.000,11.640,0.000,0.000,0.000,0.000,0.000,11.640,No
 Zone Internal Gains Nominal, ZONE WAREHOUSE FINE A END_B - STORY GROUND,20.90,0.0,N/A,0.000,11.640,0.000,0.000,0.000,0.000,0.000,11.640,No
 Zone Internal Gains Nominal, ZONE WAREHOUSE FINE B  - STORY GROUND,67.74,0.0,N/A,0.000,11.640,0.000,0.000,0.000,0.000,0.000,11.640,No
 Zone Internal Gains Nominal, ZONE WAREHOUSE FINE B END_B - STORY GROUND,60.60,0.0,N/A,0.000,11.640,0.000,0.000,0.000,0.000,0.000,11.640,No
 Zone Internal Gains Nominal, ZONE WAREHOUSE FINE C  - STORY GROUND,23.37,0.0,N/A,0.000,11.640,0.000,0.000,0.000,0.000,0.000,11.640,No
 Zone Internal Gains Nominal, ZONE WAREHOUSE FINE C END_B - STORY GROUND,20.90,0.0,N/A,0.000,11.640,0.000,0.000,0.000,0.000,0.000,11.640,No
 Zone Internal Gains Nominal, ZONE WAREHOUSE OFFICE A  - STORY GROUND,7.53,0.2,47.400,2.110E-002,21.690,8.070,0.000,0.000,0.000,0.000,29.760,No
 Zone Internal Gains Nominal, ZONE WAREHOUSE OFFICE B  - STORY GROUND,21.82,0.5,47.400,2.110E-002,21.690,8.070,0.000,0.000,0.000,0.000,29.760,No
 Zone Internal Gains Nominal, ZONE WAREHOUSE OFFICE C  - STORY GROUND,7.53,0.2,47.400,2.110E-002,21.690,8.070,0.000,0.000,0.000,0.000,29.760,No
! <People Internal Gains Nominal>,Name,Schedule Name,Zone Name,Zone Floor Area {m2},# Zone Occupants,Number of People {},People/Floor Area {person/m2},Floor Area per person {m2/person},Fraction Radiant,Fraction Convected,Sensible Fraction Calculation,Activity level,ASHRAE 55 Warnings,Carbon Dioxide Generation Rate,Nominal Minimum Number of People,Nominal Maximum Number of People
 People Internal Gains Nominal, WAREHOUSE OFFICE B  - STORY GROUND WAREHOUSE OFFICE PEOPLE,WAREHOUSE BLDG OCC,ZONE WAREHOUSE OFFICE B  - STORY GROUND,21.82,0.5,0.5,2.110E-002,47.400,0.300,0.700,AutoCalculate,WAREHOUSE ACTIVITY,No,3.8200E-008,0,0
 People Internal Gains Nominal, WAREHOUSE OFFICE C  - STORY GROUND WAREHOUSE OFFICE PEOPLE,WAREHOUSE BLDG OCC,ZONE WAREHOUSE OFFICE C  - STORY GROUND,7.53,0.2,0.2,2.110E-002,47.400,0.300,0.700,AutoCalculate,WAREHOUSE ACTIVITY,No,3.8200E-008,0,0
 People Internal Gains Nominal, WAREHOUSE OFFICE A  - STORY GROUND WAREHOUSE OFFICE PEOPLE,WAREHOUSE BLDG OCC,ZONE WAREHOUSE OFFICE A  - STORY GROUND,7.53,0.2,0.2,2.110E-002,47.400,0.300,0.700,AutoCalculate,WAREHOUSE ACTIVITY,No,3.8200E-008,0,0
! <Lights Internal Gains Nominal>,Name,Schedule Name,Zone Name,Zone Floor Area {m2},# Zone Occupants,Lighting Level {W},Lights/Floor Area {W/m2},Lights per person {W/person},Fraction Return Air,Fraction Radiant,Fraction Short Wave,Fraction Convected,Fraction Replaceable,End-Use Category,Nominal Minimum Lighting Level {W},Nominal Maximum Lighting Level {W}
 Lights Internal Gains Nominal, WAREHOUSE BULK C  - STORY GROUND WAREHOUSE BULK LIGHTS,WAREHOUSE BLDG LIGHT,ZONE WAREHOUSE BULK C  - STORY GROUND,80.91,0.0,270.230,3.340,N/A,0.000,0.500,0.200,0.300,0.000,General,0.000,270.230
 Lights Internal Gains Nominal, WAREHOUSE BULK A END_A - STORY GROUND WAREHOUSE BULK LIGHTS,WAREHOUSE BLDG LIGHT,ZONE WAREHOUSE BULK A END_A - STORY GROUND,20.90,0.0,69.817,3.340,N/A,0.000,0.500,0.200,0.300,0.000,General,0.000,69.817
 Lights Internal Gains Nominal, WAREHOUSE BULK C END_A - STORY GROUND WAREHOUSE BULK LIGHTS,WAREHOUSE BLDG LIGHT,ZONE WAREHOUSE BULK C END_A - STORY GROUND,20.90,0.0,69.817,3.340,N/A,0.000,0.500,0.200,0.300,0.000,General,0.000,69.817
 Lights Internal Gains Nominal, WAREHOUSE BULK B END_A - STORY GROUND WAREHOUSE BULK LIGHTS,WAREHOUSE BLDG LIGHT,ZONE WAREHOUSE BULK B END_A - STORY GROUND,60.60,0.0,202.397,3.340,N/A,0.000,0.500,0.200,0.300,0.000,General,0.000,202.397
 Lights Internal Gains Nominal, WAREHOUSE BULK B  - STORY GROUND WAREHOUSE BULK LIGHTS,WAREHOUSE BLDG LIGHT,ZONE WAREHOUSE BULK B  - STORY GROUND,234.55,0.0,783.391,3.340,N/A,0.000,0.500,0.200,0.300,0.000,General,0.000,783.391
 Lights Internal Gains Nominal, WAREHOUSE BULK A  - STORY GROUND WAREHOUSE BULK LIGHTS,WAREHOUSE BLDG LIGHT,ZONE WAREHOUSE BULK A  - STORY GROUND,80.91,0.0,270.230,3.340,N/A,0.000,0.500,0.200,0.300,0.000,General,0.000,270.230
 Lights Internal Gains Nominal, WAREHOUSE FINE A  - STORY GROUND WAREHOUSE FINE LIGHTS,WAREHOUSE BLDG LIGHT,ZONE WAREHOUSE FINE A  - STORY GROUND,23.37,0.0,271.982,11.640,N/A,0.000,0.500,0.200,0.300,0.000,General,0.000,271.982
 Lights Internal Gains Nominal, WAREHOUSE FINE A END_B - STORY GROUND WAREHOUSE FINE LIGHTS,WAREHOUSE BLDG LIGHT,ZONE WAREHOUSE FINE A END_B - STORY GROUND,20.90,0.0,243.313,11.640,N/A,0.000,0.500,0.200,0.300,0.000,General,0.000,243.313
 Lights Internal Gains Nominal, WAREHOUSE FINE B  - STORY GROUND WAREHOUSE FINE LIGHTS,WAREHOUSE BLDG LIGHT,ZONE WAREHOUSE FINE B  - STORY GROUND,67.74,0.0,788.471,11.640,N/A,0.000,0.500,0.200,0.300,0.000,General,0.000,788.471
 Lights Internal Gains Nominal, WAREHOUSE FINE B END_B - STORY GROUND WAREHOUSE FINE LIGHTS,WAREHOUSE BLDG LIGHT,ZONE WAREHOUSE FINE B END_B - STORY GROUND,60.60,0.0,705.360,11.640,N/A,0.000,0.500,0.200,0.300,0.000,General,0.000,705.360
 Lights Internal Gains Nominal, WAREHOUSE FINE C  - STORY GROUND WAREHOUSE FINE LIGHTS,WAREHOUSE BLDG LIGHT,ZONE WAREHOUSE FINE C  - STORY GROUND,23.37,0.0,271.982,11.640,N/A,0.000,0.500,0.200,0.300,0.000,General,0.000,271.982
 Lights Internal Gains Nominal, WAREHOUSE FINE C END_B - STORY GROUND WAREHOUSE FINE LIGHTS,WAREHOUSE BLDG LIGHT,ZONE WAREHOUSE FINE C END_B - STORY GROUND,20.90,0.0,243.313,11.640,N/A,0.000,0.500,0.200,0.300,0.000,General,0.000,243.313
 Lights Internal Gains Nominal, WAREHOUSE OFFICE B  - STORY GROUND WAREHOUSE OFFICE LIGHTS,WAREHOUSE BLDG LIGHT,ZONE WAREHOUSE OFFICE B  - STORY GROUND,21.82,0.5,473.271,21.690,1028.095,0.000,0.500,0.200,0.300,0.000,General,0.000,473.271
 Lights Internal Gains Nominal, WAREHOUSE OFFICE C  - STORY GROUND WAREHOUSE OFFICE LIGHTS,WAREHOUSE BLDG LIGHT,ZONE WAREHOUSE OFFICE C  - STORY GROUND,7.53,0.2,163.254,21.690,1028.095,0.000,0.500,0.200,0.300,0.000,General,0.000,163.254
 Lights Internal Gains Nominal, WAREHOUSE OFFICE A  - STORY GROUND WAREHOUSE OFFICE LIGHTS,WAREHOUSE BLDG LIGHT,ZONE WAREHOUSE OFFICE A  - STORY GROUND,7.53,0.2,163.254,21.690,1028.095,0.000,0.500,0.200,0.300,0.000,General,0.000,163.254
! <ElectricEquipment Internal Gains Nominal>,Name,Schedule Name,Zone Name,Zone Floor Area {m2},# Zone Occupants,Equipment Level {W},Equipment/Floor Area {W/m2},Equipment per person {W/person},Fraction Latent,Fraction Radiant,Fraction Lost,Fraction Convected,End-Use SubCategory,Nominal Minimum Equipment Level {W},Nominal Maximum Equipment Level {W}
 ElectricEquipment Internal Gains Nominal, WAREHOUSE BULK C  - STORY GROUND WAREHOUSE BULK ELEC EQUIP,WAREHOUSE BLDG EQUIP,ZONE WAREHOUSE BULK C  - STORY GROUND,80.91,0.0,207.122,2.560,N/A,0.000,0.500,0.000,0.500,General,0.000,207.122
 ElectricEquipment Internal Gains Nominal, WAREHOUSE BULK A END_A - STORY GROUND WAREHOUSE BULK ELEC EQUIP,WAREHOUSE BLDG EQUIP,ZONE WAREHOUSE BULK A END_A - STORY GROUND,20.90,0.0,53.512,2.560,N/A,0.000,0.500,0.000,0.500,General,0.000,53.512
 ElectricEquipment Internal Gains Nominal, WAREHOUSE BULK C END_A - STORY GROUND WAREHOUSE BULK ELEC EQUIP,WAREHOUSE BLDG EQUIP,ZONE WAREHOUSE BULK C END_A - STORY GROUND,20.90,0.0,53.512,2.560,N/A,0.000,0.500,0.000,0.500,General,0.000,53.512
 ElectricEquipment Internal Gains Nominal, WAREHOUSE BULK B END_A - STORY GROUND WAREHOUSE BULK ELEC EQUIP,WAREHOUSE BLDG EQUIP,ZONE WAREHOUSE BULK B END_A - STORY GROUND,60.60,0.0,155.131,2.560,N/A,0.000,0.500,0.000,0.500,General,0.000,155.131
 ElectricEquipment Internal Gains Nominal, WAREHOUSE BULK B  - STORY GROUND WAREHOUSE BULK ELEC EQUIP,WAREHOUSE BLDG EQUIP,ZONE WAREHOUSE BULK B  - STORY GROUND,234.55,0.0,600.443,2.560,N/A,0.000,0.500,0.000,0.500,General,0.000,600.443
 ElectricEquipment Internal Gains Nominal, WAREHOUSE BULK A  - STORY GROUND WAREHOUSE BULK ELEC EQUIP,WAREHOUSE BLDG EQUIP,ZONE WAREHOUSE BULK A  - STORY GROUND,80.91,0.0,207.122,2.560,N/A,0.000,0.500,0.000,0.500,General,0.000,207.122
 ElectricEquipment Internal Gains Nominal, WAREHOUSE OFFICE B  - STORY GROUND WAREHOUSE OFFICE ELEC EQUIP,WAREHOUSE BLDG EQUIP,ZONE WAREHOUSE OFFICE B  - STORY GROUND,21.82,0.5,176.086,8.070,382.514,0.000,0.500,0.000,0.500,General,0.000,176.086
 ElectricEquipment Internal Gains Nominal, WAREHOUSE OFFICE C  - STORY GROUND WAREHOUSE OFFICE ELEC EQUIP,WAREHOUSE BLDG EQUIP,ZONE WAREHOUSE OFFICE C  - STORY GROUND,7.53,0.2,60.741,8.070,382.514,0.000,0.500,0.000,0.500,General,0.000,60.741
 ElectricEquipment Internal Gains Nominal, WAREHOUSE OFFICE A  - STORY GROUND WAREHOUSE OFFICE ELEC EQUIP,WAREHOUSE BLDG EQUIP,ZONE WAREHOUSE OFFICE A  - STORY GROUND,7.53,0.2,60.741,8.070,382.514,0.000,0.500,0.000,0.500,General,0.000,60.741
! <Shadowing/Sun Position Calculations Annual Simulations>, Shading Calculation Method, Shading Calculation Update Frequency Method, Shading Calculation Update Frequency {days}, Maximum Figures in Shadow Overlap Calculations {}, Polygon Clipping Algorithm, Pixel Counting Resolution, Sky Diffuse Modeling Algorithm, Output External Shading Calculation Results, Disable Self-Shading Within Shading Zone Groups, Disable Self-Shading From Shading Zone Groups to Other Zones
Shadowing/Sun Position Calculations Annual Simulations,PolygonClipping,Periodic,30,15000,SutherlandHodgman,512,SimpleSkyDiffuseModeling,No,No,No
! <Water Heater Information>,Type,Name,Volume {m3},Maximum Capacity {W},Standard Rated Recovery Efficiency, Standard Rated Energy Factor
! <ZoneInfiltration Airflow Stats Nominal>,Name,Schedule Name,Zone Name, Zone Floor Area {m2}, # Zone Occupants,Design Volume Flow Rate {m3/s},Volume Flow Rate/Floor Area {m3/s-m2},Volume Flow Rate/Exterior Surface Area {m3/s-m2},ACH - Air Changes per Hour,Equation A - Constant Term Coefficient {},Equation B - Temperature Term Coefficient {1/C},Equation C - Velocity Term Coefficient {s/m}, Equation D - Velocity Squared Term Coefficient {s2/m2}
 ZoneInfiltration Airflow Stats Nominal, WAREHOUSE BULK A  - STORY GROUND INFILTRATION,ALWAYS ON DISCRETE,ZONE WAREHOUSE BULK A  - STORY GROUND,80.91,0.0,0.166,2.050E-003,6.835E-004,0.807,1.000,0.000,0.000,0.000
 ZoneInfiltration Airflow Stats Nominal, WAREHOUSE BULK A END_A - STORY GROUND INFILTRATION,ALWAYS ON DISCRETE,ZONE WAREHOUSE BULK A END_A - STORY GROUND,20.90,0.0,8.572E-002,4.101E-003,8.202E-004,1.615,1.000,0.000,0.000,0.000
 ZoneInfiltration Airflow Stats Nominal, WAREHOUSE BULK B END_A - STORY GROUND INFILTRATION,ALWAYS ON DISCRETE,ZONE WAREHOUSE BULK B END_A - STORY GROUND,60.60,0.0,0.124,2.050E-003,6.835E-004,0.807,1.000,0.000,0.000,0.000
 ZoneInfiltration Airflow Stats Nominal, WAREHOUSE BULK C  - STORY GROUND INFILTRATION,ALWAYS ON DISCRETE,ZONE WAREHOUSE BULK C  - STORY GROUND,80.91,0.0,0.166,2.050E-003,6.835E-004,0.807,1.000,0.000,0.000,0.000
 ZoneInfiltration Airflow Stats Nominal, WAREHOUSE BULK C END_A - STORY GROUND INFILTRATION,ALWAYS ON DISCRETE,ZONE WAREHOUSE BULK C END_A - STORY GROUND,20.90,0.0,8.572E-002,4.101E-003,8.202E-004,1.615,1.000,0.000,0.000,0.000
 ZoneInfiltration Airflow Stats Nominal, WAREHOUSE FINE A  - STORY GROUND INFILTRATION,ALWAYS ON DISCRETE,ZONE WAREHOUSE FINE A  - STORY GROUND,23.37,0.0,4.791E-002,2.050E-003,6.835E-004,0.807,1.000,0.000,0.000,0.000
 ZoneInfiltration Airflow Stats Nominal, WAREHOUSE FINE A END_B - STORY GROUND INFILTRATION,ALWAYS ON DISCRETE,ZONE WAREHOUSE FINE A END_B - STORY GROUND,20.90,0.0,8.572E-002,4.101E-003,8.202E-004,1.615,1.000,0.000,0.000,0.000
 ZoneInfiltration Airflow Stats Nominal, WAREHOUSE FINE B END_B - STORY GROUND INFILTRATION,ALWAYS ON DISCRETE,ZONE WAREHOUSE FINE B END_B - STORY GROUND,60.60,0.0,0.124,2.050E-003,6.835E-004,0.807,1.000,0.000,0.000,0.000
 ZoneInfiltration Airflow Stats Nominal, WAREHOUSE FINE C  - STORY GROUND INFILTRATION,ALWAYS ON DISCRETE,ZONE WAREHOUSE FINE C  - STORY GROUND,23.37,0.0,4.791E-002,2.050E-003,6.835E-004,0.807,1.000,0.000,0.000,0.000
 ZoneInfiltration Airflow Stats Nominal, WAREHOUSE FINE C END_B - STORY GROUND INFILTRATION,ALWAYS ON DISCRETE,ZONE WAREHOUSE FINE C END_B - STORY GROUND,20.90,0.0,8.572E-002,4.101E-003,8.202E-004,1.615,1.000,0.000,0.000,0.000
 ZoneInfiltration Airflow Stats Nominal, WAREHOUSE OFFICE A  - STORY GROUND INFILTRATION,ALWAYS ON DISCRETE,ZONE WAREHOUSE OFFICE A  - STORY GROUND,7.53,0.2,1.543E-002,2.050E-003,6.835E-004,0.807,1.000,0.000,0.000,0.000
 ZoneInfiltration Airflow Stats Nominal, WAREHOUSE OFFICE C  - STORY GROUND INFILTRATION,ALWAYS ON DISCRETE,ZONE WAREHOUSE OFFICE C  - STORY GROUND,7.53,0.2,1.543E-002,2.050E-003,6.835E-004,0.807,1.000,0.000,0.000,0.000
! <AirFlow Model>, Simple
 AirFlow Model, Simple
! <RoomAir Model>, Zone Name, Mixing/Mundt/UCSDDV/UCSDCV/UCSDUFI/UCSDUFE/User Defined
RoomAir Model,ZONE WAREHOUSE BULK A  - STORY GROUND,Mixing/Well-Stirred
RoomAir Model,ZONE WAREHOUSE BULK A END_A - STORY GROUND,Mixing/Well-Stirred
RoomAir Model,ZONE WAREHOUSE BULK B  - STORY GROUND,Mixing/Well-Stirred
RoomAir Model,ZONE WAREHOUSE BULK B END_A - STORY GROUND,Mixing/Well-Stirred
RoomAir Model,ZONE WAREHOUSE BULK C  - STORY GROUND,Mixing/Well-Stirred
RoomAir Model,ZONE WAREHOUSE BULK C END_A - STORY GROUND,Mixing/Well-Stirred
RoomAir Model,ZONE WAREHOUSE FINE A  - STORY GROUND,Mixing/Well-Stirred
RoomAir Model,ZONE WAREHOUSE FINE A END_B - STORY GROUND,Mixing/Well-Stirred
RoomAir Model,ZONE WAREHOUSE FINE B  - STORY GROUND,Mixing/Well-Stirred
RoomAir Model,ZONE WAREHOUSE FINE B END_B - STORY GROUND,Mixing/Well-Stirred
RoomAir Model,ZONE WAREHOUSE FINE C  - STORY GROUND,Mixing/Well-Stirred
RoomAir Model,ZONE WAREHOUSE FINE C END_B - STORY GROUND,Mixing/Well-Stirred
RoomAir Model,ZONE WAREHOUSE OFFICE A  - STORY GROUND,Mixing/Well-Stirred
RoomAir Model,ZONE WAREHOUSE OFFICE B  - STORY GROUND,Mixing/Well-Stirred
RoomAir Model,ZONE WAREHOUSE OFFICE C  - STORY GROUND,Mixing/Well-Stirred
! <AirflowNetwork Model:Control>, No Multizone or Distribution/Multizone with Distribution/Multizone without Distribution/Multizone with Distribution only during Fan Operation
AirflowNetwork Model:Control,NoMultizoneOrDistribution
! <Zone Volume Capacitance Multiplier>, Sensible Heat Capacity Multiplier, Moisture Capacity Multiplier, Carbon Dioxide Capacity Multiplier, Generic Contaminant Capacity Multiplier
Zone Volume Capacitance Multiplier,   1.000 ,   1.000,   1.000,   1.000
! <Load Timesteps in Zone Design Calculation Averaging Window>, Value
 Load Timesteps in Zone Design Calculation Averaging Window,    6
! <Heating Sizing Factor Information>, Sizing Factor ID, Value
 Heating Sizing Factor Information, Global,   1.2500    
 Heating Sizing Factor Information, Zone ZONE WAREHOUSE BULK A  - STORY GROUND,   1.2500    
 Heating Sizing Factor Information, Zone ZONE WAREHOUSE BULK A END_A - STORY GROUND,   1.2500    
 Heating Sizing Factor Information, Zone ZONE WAREHOUSE BULK B  - STORY GROUND,   1.2500    
 Heating Sizing Factor Information, Zone ZONE WAREHOUSE BULK B END_A - STORY GROUND,   1.2500    
 Heating Sizing Factor Information, Zone ZONE WAREHOUSE BULK C  - STORY GROUND,   1.2500    
 Heating Sizing Factor Information, Zone ZONE WAREHOUSE BULK C END_A - STORY GROUND,   1.2500    
 Heating Sizing Factor Information, Zone ZONE WAREHOUSE FINE A  - STORY GROUND,   1.2500    
 Heating Sizing Factor Information, Zone ZONE WAREHOUSE FINE A END_B - STORY GROUND,   1.2500    
 Heating Sizing Factor Information, Zone ZONE WAREHOUSE FINE B  - STORY GROUND,   1.2500    
 Heating Sizing Factor Information, Zone ZONE WAREHOUSE FINE B END_B - STORY GROUND,   1.2500    
 Heating Sizing Factor Information, Zone ZONE WAREHOUSE FINE C  - STORY GROUND,   1.2500    
 Heating Sizing Factor Information, Zone ZONE WAREHOUSE FINE C END_B - STORY GROUND,   1.2500    
 Heating Sizing Factor Information, Zone ZONE WAREHOUSE OFFICE A  - STORY GROUND,   1.2500    
 Heating Sizing Factor Information, Zone ZONE WAREHOUSE OFFICE B  - STORY GROUND,   1.2500    
 Heating Sizing Factor Information, Zone ZONE WAREHOUSE OFFICE C  - STORY GROUND,   1.2500    
! <Cooling Sizing Factor Information>, Sizing Factor ID, Value
 Cooling Sizing Factor Information, Global,   1.1500    
 Cooling Sizing Factor Information, Zone ZONE WAREHOUSE BULK A  - STORY GROUND,   1.1500    
 Cooling Sizing Factor Information, Zone ZONE WAREHOUSE BULK A END_A - STORY GROUND,   1.1500    
 Cooling Sizing Factor Information, Zone ZONE WAREHOUSE BULK B  - STORY GROUND,   1.1500    
 Cooling Sizing Factor Information, Zone ZONE WAREHOUSE BULK B END_A - STORY GROUND,   1.1500    
 Cooling Sizing Factor Information, Zone ZONE WAREHOUSE BULK C  - STORY GROUND,   1.1500    
 Cooling Sizing Factor Information, Zone ZONE WAREHOUSE BULK C END_A - STORY GROUND,   1.1500    
 Cooling Sizing Factor Information, Zone ZONE WAREHOUSE FINE A  - STORY GROUND,   1.1500    
 Cooling Sizing Factor Information, Zone ZONE WAREHOUSE FINE A END_B - STORY GROUND,   1.1500    
 Cooling Sizing Factor Information, Zone ZONE WAREHOUSE FINE B  - STORY GROUND,   1.1500    
 Cooling Sizing Factor Information, Zone ZONE WAREHOUSE FINE B END_B - STORY GROUND,   1.1500    
 Cooling Sizing Factor Information, Zone ZONE WAREHOUSE FINE C  - STORY GROUND,   1.1500    
 Cooling Sizing Factor Information, Zone ZONE WAREHOUSE FINE C END_B - STORY GROUND,   1.1500    
 Cooling Sizing Factor Information, Zone ZONE WAREHOUSE OFFICE A  - STORY GROUND,   1.1500    
 Cooling Sizing Factor Information, Zone ZONE WAREHOUSE OFFICE B  - STORY GROUND,   1.1500    
 Cooling Sizing Factor Information, Zone ZONE WAREHOUSE OFFICE C  - STORY GROUND,   1.1500    
! <Zone Sizing Information>, Zone Name, Load Type, Calc Des Load {W}, User Des Load {W}, Calc Des Air Flow Rate {m3/s}, User Des Air Flow Rate {m3/s}, Design Day Name, Date/Time of Peak, Temperature at Peak {C}, Humidity Ratio at Peak {kgWater/kgDryAir}, Floor Area {m2}, # Occupants, Calc Outdoor Air Flow Rate {m3/s}, Calc DOAS Heat Addition Rate {W}
 Zone Sizing Information, ZONE WAREHOUSE BULK A  - STORY GROUND, Cooling, 0.00000, 0.00000, 0.00000, 2.05504E-002, KODIAK JULY .4% CONDNS DB=>MCWB, 7/21 15:40:00, 23.98000, 8.28459E-003, 80.90714, 0.00000, 2.05504E-002, 0.00000
 Zone Sizing Information, ZONE WAREHOUSE BULK A  - STORY GROUND, Heating, 5238.92502, 6548.65627, 0.13059, 0.16324, KODIAK ANN HTG 99.6% CONDNS DB, 1/21 06:20:00, -12.80000, 1.24844E-003, 80.90714, 0.00000, 2.05504E-002, 0.00000
 Zone Sizing Information, ZONE WAREHOUSE BULK A END_A - STORY GROUND, Cooling, 0.00000, 0.00000, 0.00000, 5.30941E-003, KODIAK JULY .4% CONDNS DB=>MCWB, 7/21 17:00:00, 23.43000, 8.28374E-003, 20.90318, 0.00000, 5.30941E-003, 0.00000
 Zone Sizing Information, ZONE WAREHOUSE BULK A END_A - STORY GROUND, Heating, 3024.57338, 3780.71672, 7.53922E-002, 9.42403E-002, KODIAK ANN HTG 99.6% CONDNS DB, 1/21 07:10:00, -12.80000, 1.24844E-003, 20.90318, 0.00000, 5.30941E-003, 0.00000
 Zone Sizing Information, ZONE WAREHOUSE BULK B  - STORY GROUND, Cooling, 0.00000, 0.00000, 0.00000, 5.95752E-002, KODIAK JULY .4% CONDNS DB=>MCWB, 7/21 17:00:00, 23.43000, 8.28374E-003, 234.54814, 0.00000, 5.95752E-002, 0.00000
 Zone Sizing Information, ZONE WAREHOUSE BULK B  - STORY GROUND, Heating, 0.00000, 0.00000, 0.00000, 5.95752E-002, KODIAK ANN HTG 99.6% CONDNS DB, 1/21 06:30:00, -12.80000, 1.24844E-003, 234.54814, 0.00000, 5.95752E-002, 0.00000
 Zone Sizing Information, ZONE WAREHOUSE BULK B END_A - STORY GROUND, Cooling, 0.00000, 0.00000, 0.00000, 1.53919E-002, KODIAK JULY .4% CONDNS DB=>MCWB, 7/21 17:50:00, 22.97167, 8.28303E-003, 60.59790, 0.00000, 1.53919E-002, 0.00000
 Zone Sizing Information, ZONE WAREHOUSE BULK B END_A - STORY GROUND, Heating, 4346.61208, 5433.26510, 0.10835, 0.13543, KODIAK ANN HTG 99.6% CONDNS DB, 1/21 07:20:00, -12.80000, 1.24844E-003, 60.59790, 0.00000, 1.53919E-002, 0.00000
 Zone Sizing Information, ZONE WAREHOUSE BULK C  - STORY GROUND, Cooling, 0.00000, 0.00000, 0.00000, 2.05504E-002, KODIAK JULY .4% CONDNS DB=>MCWB, 7/21 15:50:00, 23.92500, 8.28450E-003, 80.90714, 0.00000, 2.05504E-002, 0.00000
 Zone Sizing Information, ZONE WAREHOUSE BULK C  - STORY GROUND, Heating, 5236.64220, 6545.80275, 0.13053, 0.16316, KODIAK ANN HTG 99.6% CONDNS DB, 1/21 06:20:00, -12.80000, 1.24844E-003, 80.90714, 0.00000, 2.05504E-002, 0.00000
 Zone Sizing Information, ZONE WAREHOUSE BULK C END_A - STORY GROUND, Cooling, 0.00000, 0.00000, 0.00000, 5.30941E-003, KODIAK JULY .4% CONDNS DB=>MCWB, 7/21 17:10:00, 23.33833, 8.28360E-003, 20.90318, 0.00000, 5.30941E-003, 0.00000
 Zone Sizing Information, ZONE WAREHOUSE BULK C END_A - STORY GROUND, Heating, 3023.57800, 3779.47250, 7.53674E-002, 9.42092E-002, KODIAK ANN HTG 99.6% CONDNS DB, 1/21 07:10:00, -12.80000, 1.24844E-003, 20.90318, 0.00000, 5.30941E-003, 0.00000
 Zone Sizing Information, ZONE WAREHOUSE FINE A  - STORY GROUND, Cooling, 274.51769, 315.69535, 1.61065E-002, 1.85224E-002, KODIAK JULY .4% CONDNS DB=>MCWB, 7/21 15:20:00, 24.09000, 8.28476E-003, 23.36618, 0.00000, 5.93501E-003, 0.00000
 Zone Sizing Information, ZONE WAREHOUSE FINE A  - STORY GROUND, Heating, 2651.29674, 3314.12092, 6.29216E-002, 7.86520E-002, KODIAK ANN HTG 99.6% CONDNS DB, 1/21 06:10:00, -12.80000, 1.24844E-003, 23.36618, 0.00000, 5.93501E-003, 0.00000
 Zone Sizing Information, ZONE WAREHOUSE FINE A END_B - STORY GROUND, Cooling, 261.76828, 301.03352, 1.53584E-002, 1.76622E-002, KODIAK JULY .4% CONDNS DB=>MCWB, 7/21 15:10:00, 24.14500, 8.28485E-003, 20.90318, 0.00000, 5.30941E-003, 0.00000
 Zone Sizing Information, ZONE WAREHOUSE FINE A END_B - STORY GROUND, Heating, 4434.08054, 5542.60067, 0.10521, 0.13151, KODIAK ANN HTG 99.6% CONDNS DB, 1/21 06:10:00, -12.80000, 1.24844E-003, 20.90318, 0.00000, 5.30941E-003, 0.00000
 Zone Sizing Information, ZONE WAREHOUSE FINE B  - STORY GROUND, Cooling, 714.49340, 821.66741, 4.19209E-002, 4.82090E-002, KODIAK JULY .4% CONDNS DB=>MCWB, 7/21 20:00:00, 21.45000, 8.28069E-003, 67.73808, 0.00000, 1.72055E-002, 0.00000
 Zone Sizing Information, ZONE WAREHOUSE FINE B  - STORY GROUND, Heating, 904.85865, 1131.07331, 2.14810E-002, 2.68512E-002, KODIAK ANN HTG 99.6% CONDNS DB, 1/21 06:20:00, -12.80000, 1.24844E-003, 67.73808, 0.00000, 1.72055E-002, 0.00000
 Zone Sizing Information, ZONE WAREHOUSE FINE B END_B - STORY GROUND, Cooling, 593.94545, 683.03727, 3.48479E-002, 4.00751E-002, KODIAK JULY .4% CONDNS DB=>MCWB, 7/21 12:20:00, 23.63167, 8.28405E-003, 60.59790, 0.00000, 1.53919E-002, 0.00000
 Zone Sizing Information, ZONE WAREHOUSE FINE B END_B - STORY GROUND, Heating, 6645.86468, 8307.33085, 0.15772, 0.19715, KODIAK ANN HTG 99.6% CONDNS DB, 1/21 06:10:00, -12.80000, 1.24844E-003, 60.59790, 0.00000, 1.53919E-002, 0.00000
 Zone Sizing Information, ZONE WAREHOUSE FINE C  - STORY GROUND, Cooling, 0.00000, 0.00000, 0.00000, 5.93501E-003, KODIAK JULY .4% CONDNS DB=>MCWB, 7/21 15:20:00, 24.09000, 8.28476E-003, 23.36618, 0.00000, 5.93501E-003, 0.00000
 Zone Sizing Information, ZONE WAREHOUSE FINE C  - STORY GROUND, Heating, 2652.20974, 3315.26217, 6.29433E-002, 7.86791E-002, KODIAK ANN HTG 99.6% CONDNS DB, 1/21 06:10:00, -12.80000, 1.24844E-003, 23.36618, 0.00000, 5.93501E-003, 0.00000
 Zone Sizing Information, ZONE WAREHOUSE FINE C END_B - STORY GROUND, Cooling, 0.00000, 0.00000, 0.00000, 5.30941E-003, KODIAK JULY .4% CONDNS DB=>MCWB, 7/21 15:10:00, 24.14500, 8.28485E-003, 20.90318, 0.00000, 5.30941E-003, 0.00000
 Zone Sizing Information, ZONE WAREHOUSE FINE C END_B - STORY GROUND, Heating, 4434.84771, 5543.55964, 0.10523, 0.13153, KODIAK ANN HTG 99.6% CONDNS DB, 1/21 06:10:00, -12.80000, 1.24844E-003, 20.90318, 0.00000, 5.30941E-003, 0.00000
 Zone Sizing Information, ZONE WAREHOUSE OFFICE A  - STORY GROUND, Cooling, 751.44009, 864.15610, 5.46959E-002, 6.29003E-002, KODIAK JULY .4% CONDNS DB=>MCWB, 7/21 15:50:00, 23.92500, 8.28450E-003, 7.52671, 0.15879, 1.49884E-003, 0.00000
 Zone Sizing Information, ZONE WAREHOUSE OFFICE A  - STORY GROUND, Heating, 2618.57518, 3273.21898, 7.36094E-002, 9.20117E-002, KODIAK ANN HTG 99.6% CONDNS DB, 1/21 09:00:00, -12.80000, 1.24844E-003, 7.52671, 0.15879, 1.49884E-003, 0.00000
 Zone Sizing Information, ZONE WAREHOUSE OFFICE B  - STORY GROUND, Cooling, 1885.08181, 2167.84409, 0.12880, 0.14812, KODIAK JULY .4% CONDNS DB=>MCWB, 7/21 07:00:00, 19.19500, 8.27726E-003, 21.81979, 0.46034, 4.34511E-003, 0.00000
 Zone Sizing Information, ZONE WAREHOUSE OFFICE B  - STORY GROUND, Heating, 4395.93691, 5494.92114, 0.12357, 0.15446, KODIAK ANN HTG 99.6% CONDNS DB, 1/21 09:00:00, -12.80000, 1.24844E-003, 21.81979, 0.46034, 4.34511E-003, 0.00000
 Zone Sizing Information, ZONE WAREHOUSE OFFICE C  - STORY GROUND, Cooling, 475.20666, 546.48766, 3.45894E-002, 3.97778E-002, KODIAK JULY .4% CONDNS DB=>MCWB, 7/21 16:10:00, 23.79667, 8.28431E-003, 7.52671, 0.15879, 1.49884E-003, 0.00000
 Zone Sizing Information, ZONE WAREHOUSE OFFICE C  - STORY GROUND, Heating, 2619.07098, 3273.83873, 7.36233E-002, 9.20292E-002, KODIAK ANN HTG 99.6% CONDNS DB, 1/21 09:00:00, -12.80000, 1.24844E-003, 7.52671, 0.15879, 1.49884E-003, 0.00000
! <System Sizing Information>, System Name, Load Type, Peak Load Kind, User Design Capacity, Calc Des Air Flow Rate [m3/s], User Des Air Flow Rate [m3/s], Design Day Name, Date/Time of Peak
 System Sizing Information, ZONE WAREHOUSE FINE A  - STORY GROUND PSZ-AC, Cooling, Sensible, 292.18, 1.85224E-002, 1.85224E-002, KODIAK JULY .4% CONDNS DB=>MCWB, 7/21 05:00:00
 System Sizing Information, ZONE WAREHOUSE FINE A  - STORY GROUND PSZ-AC, Heating, Sensible, 3468.64, 7.86520E-002, 7.86520E-002, KODIAK ANN HTG 99.6% CONDNS DB, 1/21 06:10:00
 System Sizing Information, ZONE WAREHOUSE FINE A END_B - STORY GROUND PSZ-AC, Cooling, Sensible, 280.03, 1.76622E-002, 1.76622E-002, KODIAK JULY .4% CONDNS DB=>MCWB, 7/21 05:00:00
 System Sizing Information, ZONE WAREHOUSE FINE A END_B - STORY GROUND PSZ-AC, Heating, Sensible, 5643.24, 0.13151, 0.13151, KODIAK ANN HTG 99.6% CONDNS DB, 1/21 06:10:00
 System Sizing Information, ZONE WAREHOUSE FINE B  - STORY GROUND PSZ-AC, Cooling, Sensible, 713.45, 4.82090E-002, 4.82090E-002, KODIAK JULY .4% CONDNS DB=>MCWB, 7/21 05:00:00
 System Sizing Information, ZONE WAREHOUSE FINE B  - STORY GROUND PSZ-AC, Heating, Sensible, 1702.72, 2.68512E-002, 2.68512E-002, KODIAK ANN HTG 99.6% CONDNS DB, 1/21 06:20:00
 System Sizing Information, ZONE WAREHOUSE FINE B END_B - STORY GROUND PSZ-AC, Cooling, Sensible, 615.55, 4.00751E-002, 4.00751E-002, KODIAK JULY .4% CONDNS DB=>MCWB, 7/21 05:00:00
 System Sizing Information, ZONE WAREHOUSE FINE B END_B - STORY GROUND PSZ-AC, Heating, Sensible, 8712.25, 0.19715, 0.19715, KODIAK ANN HTG 99.6% CONDNS DB, 1/21 06:10:00
 System Sizing Information, ZONE WAREHOUSE FINE C  - STORY GROUND PSZ-AC, Cooling, Sensible, 81.71, 5.93501E-003, 5.93501E-003, KODIAK JULY .4% CONDNS DB=>MCWB, 7/21 05:00:00
 System Sizing Information, ZONE WAREHOUSE FINE C  - STORY GROUND PSZ-AC, Heating, Sensible, 3469.77, 7.86791E-002, 7.86791E-002, KODIAK ANN HTG 99.6% CONDNS DB, 1/21 06:10:00
 System Sizing Information, ZONE WAREHOUSE FINE C END_B - STORY GROUND PSZ-AC, Cooling, Sensible, 73.10, 5.30941E-003, 5.30941E-003, KODIAK JULY .4% CONDNS DB=>MCWB, 7/21 05:00:00
 System Sizing Information, ZONE WAREHOUSE FINE C END_B - STORY GROUND PSZ-AC, Heating, Sensible, 5644.18, 0.13153, 0.13153, KODIAK ANN HTG 99.6% CONDNS DB, 1/21 06:10:00
 System Sizing Information, ZONE WAREHOUSE OFFICE A  - STORY GROUND PSZ-AC, Cooling, Sensible, 850.66, 6.29003E-002, 6.29003E-002, KODIAK JULY .4% CONDNS DB=>MCWB, 7/21 05:00:00
 System Sizing Information, ZONE WAREHOUSE OFFICE A  - STORY GROUND PSZ-AC, Heating, Sensible, 3284.83, 9.20117E-002, 9.20117E-002, KODIAK ANN HTG 99.6% CONDNS DB, 1/21 09:00:00
 System Sizing Information, ZONE WAREHOUSE OFFICE B  - STORY GROUND PSZ-AC, Cooling, Sensible, 2058.14, 0.15392, 0.15392, KODIAK JULY .4% CONDNS DB=>MCWB, 7/21 05:00:00
 System Sizing Information, ZONE WAREHOUSE OFFICE B  - STORY GROUND PSZ-AC, Heating, Sensible, 5586.69, 0.15446, 0.15446, KODIAK ANN HTG 99.6% CONDNS DB, 1/21 09:00:00
 System Sizing Information, ZONE WAREHOUSE OFFICE C  - STORY GROUND PSZ-AC, Cooling, Sensible, 537.67, 3.97778E-002, 3.97778E-002, KODIAK JULY .4% CONDNS DB=>MCWB, 7/21 05:00:00
 System Sizing Information, ZONE WAREHOUSE OFFICE C  - STORY GROUND PSZ-AC, Heating, Sensible, 3285.44, 9.20292E-002, 9.20292E-002, KODIAK ANN HTG 99.6% CONDNS DB, 1/21 09:00:00
! <Component Sizing Information>, Component Type, Component Name, Input Field Description, Value
 Component Sizing Information, ZoneHVAC:Baseboard:Convective:Water, ZONE WAREHOUSE BULK A  - STORY GROUND HYDRONIC BASEBOARD, Design Size Maximum Water Flow Rate [m3/s], 1.43238E-004
 Component Sizing Information, ZoneHVAC:Baseboard:Convective:Water, ZONE WAREHOUSE BULK A  - STORY GROUND HYDRONIC BASEBOARD, Design Size U-Factor Times Area Value [W/K], 117.39567
 Component Sizing Information, ZoneHVAC:Baseboard:Convective:Water, ZONE WAREHOUSE BULK A END_A - STORY GROUND HYDRONIC BASEBOARD, Design Size Maximum Water Flow Rate [m3/s], 8.26950E-005
 Component Sizing Information, ZoneHVAC:Baseboard:Convective:Water, ZONE WAREHOUSE BULK A END_A - STORY GROUND HYDRONIC BASEBOARD, Design Size U-Factor Times Area Value [W/K], 67.77570
 Component Sizing Information, ZoneHVAC:Baseboard:Convective:Water, ZONE WAREHOUSE BULK B  - STORY GROUND HYDRONIC BASEBOARD, Design Size Maximum Water Flow Rate [m3/s], 0.00000
 Component Sizing Information, ZoneHVAC:Baseboard:Convective:Water, ZONE WAREHOUSE BULK B  - STORY GROUND HYDRONIC BASEBOARD, Design Size U-Factor Times Area Value [W/K], 0.00000
 Component Sizing Information, ZoneHVAC:Baseboard:Convective:Water, ZONE WAREHOUSE BULK B END_A - STORY GROUND HYDRONIC BASEBOARD, Design Size Maximum Water Flow Rate [m3/s], 1.18841E-004
 Component Sizing Information, ZoneHVAC:Baseboard:Convective:Water, ZONE WAREHOUSE BULK B END_A - STORY GROUND HYDRONIC BASEBOARD, Design Size U-Factor Times Area Value [W/K], 97.40041
 Component Sizing Information, ZoneHVAC:Baseboard:Convective:Water, ZONE WAREHOUSE BULK C  - STORY GROUND HYDRONIC BASEBOARD, Design Size Maximum Water Flow Rate [m3/s], 1.43175E-004
 Component Sizing Information, ZoneHVAC:Baseboard:Convective:Water, ZONE WAREHOUSE BULK C  - STORY GROUND HYDRONIC BASEBOARD, Design Size U-Factor Times Area Value [W/K], 117.34452
 Component Sizing Information, ZoneHVAC:Baseboard:Convective:Water, ZONE WAREHOUSE BULK C END_A - STORY GROUND HYDRONIC BASEBOARD, Design Size Maximum Water Flow Rate [m3/s], 8.26678E-005
 Component Sizing Information, ZoneHVAC:Baseboard:Convective:Water, ZONE WAREHOUSE BULK C END_A - STORY GROUND HYDRONIC BASEBOARD, Design Size U-Factor Times Area Value [W/K], 67.75340
 Component Sizing Information, AirTerminal:SingleDuct:ConstantVolume:NoReheat, ZONE WAREHOUSE FINE A  - STORY GROUND PSZ-AC DIFFUSER, Design Size Maximum Air Flow Rate [m3/s], 7.86520E-002
 Component Sizing Information, AirTerminal:SingleDuct:ConstantVolume:NoReheat, ZONE WAREHOUSE FINE A END_B - STORY GROUND PSZ-AC DIFFUSER, Design Size Maximum Air Flow Rate [m3/s], 0.13151
 Component Sizing Information, AirTerminal:SingleDuct:ConstantVolume:NoReheat, ZONE WAREHOUSE FINE B  - STORY GROUND PSZ-AC DIFFUSER, Design Size Maximum Air Flow Rate [m3/s], 4.82090E-002
 Component Sizing Information, AirTerminal:SingleDuct:ConstantVolume:NoReheat, ZONE WAREHOUSE FINE B END_B - STORY GROUND PSZ-AC DIFFUSER, Design Size Maximum Air Flow Rate [m3/s], 0.19715
 Component Sizing Information, AirTerminal:SingleDuct:ConstantVolume:NoReheat, ZONE WAREHOUSE FINE C  - STORY GROUND PSZ-AC DIFFUSER, Design Size Maximum Air Flow Rate [m3/s], 7.86791E-002
 Component Sizing Information, AirTerminal:SingleDuct:ConstantVolume:NoReheat, ZONE WAREHOUSE FINE C END_B - STORY GROUND PSZ-AC DIFFUSER, Design Size Maximum Air Flow Rate [m3/s], 0.13153
 Component Sizing Information, AirTerminal:SingleDuct:ConstantVolume:NoReheat, ZONE WAREHOUSE OFFICE A  - STORY GROUND PSZ-AC DIFFUSER, Design Size Maximum Air Flow Rate [m3/s], 9.20117E-002
 Component Sizing Information, AirTerminal:SingleDuct:ConstantVolume:NoReheat, ZONE WAREHOUSE OFFICE B  - STORY GROUND PSZ-AC DIFFUSER, Design Size Maximum Air Flow Rate [m3/s], 0.15446
 Component Sizing Information, AirTerminal:SingleDuct:ConstantVolume:NoReheat, ZONE WAREHOUSE OFFICE C  - STORY GROUND PSZ-AC DIFFUSER, Design Size Maximum Air Flow Rate [m3/s], 9.20292E-002
 Component Sizing Information, AirLoopHVAC, ZONE WAREHOUSE FINE A  - STORY GROUND PSZ-AC, Sum of Air Terminal Maximum Heating Flow Rates [m3/s], 7.86520E-002
 Component Sizing Information, AirLoopHVAC, ZONE WAREHOUSE FINE A  - STORY GROUND PSZ-AC, Sum of Air Terminal Minimum Heating Flow Rates [m3/s], 7.86520E-002
 Component Sizing Information, AirLoopHVAC, ZONE WAREHOUSE FINE A  - STORY GROUND PSZ-AC, Sum of Air Terminal Maximum Flow Rates [m3/s], 7.86520E-002
 Component Sizing Information, AirLoopHVAC, ZONE WAREHOUSE FINE A  - STORY GROUND PSZ-AC, Adjusted Heating Design Air Flow Rate [m3/s], 7.86520E-002
 Component Sizing Information, AirLoopHVAC, ZONE WAREHOUSE FINE A  - STORY GROUND PSZ-AC, Adjusted Cooling Design Air Flow Rate [m3/s], 7.86520E-002
 Component Sizing Information, AirLoopHVAC, ZONE WAREHOUSE FINE A  - STORY GROUND PSZ-AC, Adjusted Main Design Air Flow Rate [m3/s], 7.86520E-002
 Component Sizing Information, AirLoopHVAC, ZONE WAREHOUSE FINE A  - STORY GROUND PSZ-AC, User Heating Air Flow Ratio [], 1.00000
 Component Sizing Information, AirLoopHVAC, ZONE WAREHOUSE FINE A  - STORY GROUND PSZ-AC, Calculated Heating Air Flow Ratio [], 1.00000
 Component Sizing Information, AirLoopHVAC, ZONE WAREHOUSE FINE A END_B - STORY GROUND PSZ-AC, Sum of Air Terminal Maximum Heating Flow Rates [m3/s], 0.13151
 Component Sizing Information, AirLoopHVAC, ZONE WAREHOUSE FINE A END_B - STORY GROUND PSZ-AC, Sum of Air Terminal Minimum Heating Flow Rates [m3/s], 0.13151
 Component Sizing Information, AirLoopHVAC, ZONE WAREHOUSE FINE A END_B - STORY GROUND PSZ-AC, Sum of Air Terminal Maximum Flow Rates [m3/s], 0.13151
 Component Sizing Information, AirLoopHVAC, ZONE WAREHOUSE FINE A END_B - STORY GROUND PSZ-AC, Adjusted Heating Design Air Flow Rate [m3/s], 0.13151
 Component Sizing Information, AirLoopHVAC, ZONE WAREHOUSE FINE A END_B - STORY GROUND PSZ-AC, Adjusted Cooling Design Air Flow Rate [m3/s], 0.13151
 Component Sizing Information, AirLoopHVAC, ZONE WAREHOUSE FINE A END_B - STORY GROUND PSZ-AC, Adjusted Main Design Air Flow Rate [m3/s], 0.13151
 Component Sizing Information, AirLoopHVAC, ZONE WAREHOUSE FINE A END_B - STORY GROUND PSZ-AC, User Heating Air Flow Ratio [], 1.00000
 Component Sizing Information, AirLoopHVAC, ZONE WAREHOUSE FINE A END_B - STORY GROUND PSZ-AC, Calculated Heating Air Flow Ratio [], 1.00000
 Component Sizing Information, AirLoopHVAC, ZONE WAREHOUSE FINE B  - STORY GROUND PSZ-AC, Sum of Air Terminal Maximum Heating Flow Rates [m3/s], 4.82090E-002
 Component Sizing Information, AirLoopHVAC, ZONE WAREHOUSE FINE B  - STORY GROUND PSZ-AC, Sum of Air Terminal Minimum Heating Flow Rates [m3/s], 4.82090E-002
 Component Sizing Information, AirLoopHVAC, ZONE WAREHOUSE FINE B  - STORY GROUND PSZ-AC, Sum of Air Terminal Maximum Flow Rates [m3/s], 4.82090E-002
 Component Sizing Information, AirLoopHVAC, ZONE WAREHOUSE FINE B  - STORY GROUND PSZ-AC, Adjusted Heating Design Air Flow Rate [m3/s], 4.82090E-002
 Component Sizing Information, AirLoopHVAC, ZONE WAREHOUSE FINE B  - STORY GROUND PSZ-AC, Adjusted Cooling Design Air Flow Rate [m3/s], 4.82090E-002
 Component Sizing Information, AirLoopHVAC, ZONE WAREHOUSE FINE B  - STORY GROUND PSZ-AC, Adjusted Main Design Air Flow Rate [m3/s], 4.82090E-002
 Component Sizing Information, AirLoopHVAC, ZONE WAREHOUSE FINE B  - STORY GROUND PSZ-AC, User Heating Air Flow Ratio [], 1.00000
 Component Sizing Information, AirLoopHVAC, ZONE WAREHOUSE FINE B  - STORY GROUND PSZ-AC, Calculated Heating Air Flow Ratio [], 1.00000
 Component Sizing Information, AirLoopHVAC, ZONE WAREHOUSE FINE B END_B - STORY GROUND PSZ-AC, Sum of Air Terminal Maximum Heating Flow Rates [m3/s], 0.19715
 Component Sizing Information, AirLoopHVAC, ZONE WAREHOUSE FINE B END_B - STORY GROUND PSZ-AC, Sum of Air Terminal Minimum Heating Flow Rates [m3/s], 0.19715
 Component Sizing Information, AirLoopHVAC, ZONE WAREHOUSE FINE B END_B - STORY GROUND PSZ-AC, Sum of Air Terminal Maximum Flow Rates [m3/s], 0.19715
 Component Sizing Information, AirLoopHVAC, ZONE WAREHOUSE FINE B END_B - STORY GROUND PSZ-AC, Adjusted Heating Design Air Flow Rate [m3/s], 0.19715
 Component Sizing Information, AirLoopHVAC, ZONE WAREHOUSE FINE B END_B - STORY GROUND PSZ-AC, Adjusted Cooling Design Air Flow Rate [m3/s], 0.19715
 Component Sizing Information, AirLoopHVAC, ZONE WAREHOUSE FINE B END_B - STORY GROUND PSZ-AC, Adjusted Main Design Air Flow Rate [m3/s], 0.19715
 Component Sizing Information, AirLoopHVAC, ZONE WAREHOUSE FINE B END_B - STORY GROUND PSZ-AC, User Heating Air Flow Ratio [], 1.00000
 Component Sizing Information, AirLoopHVAC, ZONE WAREHOUSE FINE B END_B - STORY GROUND PSZ-AC, Calculated Heating Air Flow Ratio [], 1.00000
 Component Sizing Information, AirLoopHVAC, ZONE WAREHOUSE FINE C  - STORY GROUND PSZ-AC, Sum of Air Terminal Maximum Heating Flow Rates [m3/s], 7.86791E-002
 Component Sizing Information, AirLoopHVAC, ZONE WAREHOUSE FINE C  - STORY GROUND PSZ-AC, Sum of Air Terminal Minimum Heating Flow Rates [m3/s], 7.86791E-002
 Component Sizing Information, AirLoopHVAC, ZONE WAREHOUSE FINE C  - STORY GROUND PSZ-AC, Sum of Air Terminal Maximum Flow Rates [m3/s], 7.86791E-002
 Component Sizing Information, AirLoopHVAC, ZONE WAREHOUSE FINE C  - STORY GROUND PSZ-AC, Adjusted Heating Design Air Flow Rate [m3/s], 7.86791E-002
 Component Sizing Information, AirLoopHVAC, ZONE WAREHOUSE FINE C  - STORY GROUND PSZ-AC, Adjusted Cooling Design Air Flow Rate [m3/s], 7.86791E-002
 Component Sizing Information, AirLoopHVAC, ZONE WAREHOUSE FINE C  - STORY GROUND PSZ-AC, Adjusted Main Design Air Flow Rate [m3/s], 7.86791E-002
 Component Sizing Information, AirLoopHVAC, ZONE WAREHOUSE FINE C  - STORY GROUND PSZ-AC, User Heating Air Flow Ratio [], 1.00000
 Component Sizing Information, AirLoopHVAC, ZONE WAREHOUSE FINE C  - STORY GROUND PSZ-AC, Calculated Heating Air Flow Ratio [], 1.00000
 Component Sizing Information, AirLoopHVAC, ZONE WAREHOUSE FINE C END_B - STORY GROUND PSZ-AC, Sum of Air Terminal Maximum Heating Flow Rates [m3/s], 0.13153
 Component Sizing Information, AirLoopHVAC, ZONE WAREHOUSE FINE C END_B - STORY GROUND PSZ-AC, Sum of Air Terminal Minimum Heating Flow Rates [m3/s], 0.13153
 Component Sizing Information, AirLoopHVAC, ZONE WAREHOUSE FINE C END_B - STORY GROUND PSZ-AC, Sum of Air Terminal Maximum Flow Rates [m3/s], 0.13153
 Component Sizing Information, AirLoopHVAC, ZONE WAREHOUSE FINE C END_B - STORY GROUND PSZ-AC, Adjusted Heating Design Air Flow Rate [m3/s], 0.13153
 Component Sizing Information, AirLoopHVAC, ZONE WAREHOUSE FINE C END_B - STORY GROUND PSZ-AC, Adjusted Cooling Design Air Flow Rate [m3/s], 0.13153
 Component Sizing Information, AirLoopHVAC, ZONE WAREHOUSE FINE C END_B - STORY GROUND PSZ-AC, Adjusted Main Design Air Flow Rate [m3/s], 0.13153
 Component Sizing Information, AirLoopHVAC, ZONE WAREHOUSE FINE C END_B - STORY GROUND PSZ-AC, User Heating Air Flow Ratio [], 1.00000
 Component Sizing Information, AirLoopHVAC, ZONE WAREHOUSE FINE C END_B - STORY GROUND PSZ-AC, Calculated Heating Air Flow Ratio [], 1.00000
 Component Sizing Information, AirLoopHVAC, ZONE WAREHOUSE OFFICE A  - STORY GROUND PSZ-AC, Sum of Air Terminal Maximum Heating Flow Rates [m3/s], 9.20117E-002
 Component Sizing Information, AirLoopHVAC, ZONE WAREHOUSE OFFICE A  - STORY GROUND PSZ-AC, Sum of Air Terminal Minimum Heating Flow Rates [m3/s], 9.20117E-002
 Component Sizing Information, AirLoopHVAC, ZONE WAREHOUSE OFFICE A  - STORY GROUND PSZ-AC, Sum of Air Terminal Maximum Flow Rates [m3/s], 9.20117E-002
 Component Sizing Information, AirLoopHVAC, ZONE WAREHOUSE OFFICE A  - STORY GROUND PSZ-AC, Adjusted Heating Design Air Flow Rate [m3/s], 9.20117E-002
 Component Sizing Information, AirLoopHVAC, ZONE WAREHOUSE OFFICE A  - STORY GROUND PSZ-AC, Adjusted Cooling Design Air Flow Rate [m3/s], 9.20117E-002
 Component Sizing Information, AirLoopHVAC, ZONE WAREHOUSE OFFICE A  - STORY GROUND PSZ-AC, Adjusted Main Design Air Flow Rate [m3/s], 9.20117E-002
 Component Sizing Information, AirLoopHVAC, ZONE WAREHOUSE OFFICE A  - STORY GROUND PSZ-AC, User Heating Air Flow Ratio [], 1.00000
 Component Sizing Information, AirLoopHVAC, ZONE WAREHOUSE OFFICE A  - STORY GROUND PSZ-AC, Calculated Heating Air Flow Ratio [], 1.00000
 Component Sizing Information, AirLoopHVAC, ZONE WAREHOUSE OFFICE B  - STORY GROUND PSZ-AC, Sum of Air Terminal Maximum Heating Flow Rates [m3/s], 0.15446
 Component Sizing Information, AirLoopHVAC, ZONE WAREHOUSE OFFICE B  - STORY GROUND PSZ-AC, Sum of Air Terminal Minimum Heating Flow Rates [m3/s], 0.15446
 Component Sizing Information, AirLoopHVAC, ZONE WAREHOUSE OFFICE B  - STORY GROUND PSZ-AC, Sum of Air Terminal Maximum Flow Rates [m3/s], 0.15446
 Component Sizing Information, AirLoopHVAC, ZONE WAREHOUSE OFFICE B  - STORY GROUND PSZ-AC, Adjusted Heating Design Air Flow Rate [m3/s], 0.15446
 Component Sizing Information, AirLoopHVAC, ZONE WAREHOUSE OFFICE B  - STORY GROUND PSZ-AC, Adjusted Cooling Design Air Flow Rate [m3/s], 0.15446
 Component Sizing Information, AirLoopHVAC, ZONE WAREHOUSE OFFICE B  - STORY GROUND PSZ-AC, Adjusted Main Design Air Flow Rate [m3/s], 0.15446
 Component Sizing Information, AirLoopHVAC, ZONE WAREHOUSE OFFICE B  - STORY GROUND PSZ-AC, User Heating Air Flow Ratio [], 1.00000
 Component Sizing Information, AirLoopHVAC, ZONE WAREHOUSE OFFICE B  - STORY GROUND PSZ-AC, Calculated Heating Air Flow Ratio [], 1.00000
 Component Sizing Information, AirLoopHVAC, ZONE WAREHOUSE OFFICE C  - STORY GROUND PSZ-AC, Sum of Air Terminal Maximum Heating Flow Rates [m3/s], 9.20292E-002
 Component Sizing Information, AirLoopHVAC, ZONE WAREHOUSE OFFICE C  - STORY GROUND PSZ-AC, Sum of Air Terminal Minimum Heating Flow Rates [m3/s], 9.20292E-002
 Component Sizing Information, AirLoopHVAC, ZONE WAREHOUSE OFFICE C  - STORY GROUND PSZ-AC, Sum of Air Terminal Maximum Flow Rates [m3/s], 9.20292E-002
 Component Sizing Information, AirLoopHVAC, ZONE WAREHOUSE OFFICE C  - STORY GROUND PSZ-AC, Adjusted Heating Design Air Flow Rate [m3/s], 9.20292E-002
 Component Sizing Information, AirLoopHVAC, ZONE WAREHOUSE OFFICE C  - STORY GROUND PSZ-AC, Adjusted Cooling Design Air Flow Rate [m3/s], 9.20292E-002
 Component Sizing Information, AirLoopHVAC, ZONE WAREHOUSE OFFICE C  - STORY GROUND PSZ-AC, Adjusted Main Design Air Flow Rate [m3/s], 9.20292E-002
 Component Sizing Information, AirLoopHVAC, ZONE WAREHOUSE OFFICE C  - STORY GROUND PSZ-AC, User Heating Air Flow Ratio [], 1.00000
 Component Sizing Information, AirLoopHVAC, ZONE WAREHOUSE OFFICE C  - STORY GROUND PSZ-AC, Calculated Heating Air Flow Ratio [], 1.00000
 Component Sizing Information, AirLoopHVAC, ZONE WAREHOUSE FINE A  - STORY GROUND PSZ-AC, Design Supply Air Flow Rate [m3/s], 7.86520E-002
 Component Sizing Information, AirLoopHVAC, ZONE WAREHOUSE FINE A END_B - STORY GROUND PSZ-AC, Design Supply Air Flow Rate [m3/s], 0.13151
 Component Sizing Information, AirLoopHVAC, ZONE WAREHOUSE FINE B  - STORY GROUND PSZ-AC, Design Supply Air Flow Rate [m3/s], 4.82090E-002
 Component Sizing Information, AirLoopHVAC, ZONE WAREHOUSE FINE B END_B - STORY GROUND PSZ-AC, Design Supply Air Flow Rate [m3/s], 0.19715
 Component Sizing Information, AirLoopHVAC, ZONE WAREHOUSE FINE C  - STORY GROUND PSZ-AC, Design Supply Air Flow Rate [m3/s], 7.86791E-002
 Component Sizing Information, AirLoopHVAC, ZONE WAREHOUSE FINE C END_B - STORY GROUND PSZ-AC, Design Supply Air Flow Rate [m3/s], 0.13153
 Component Sizing Information, AirLoopHVAC, ZONE WAREHOUSE OFFICE A  - STORY GROUND PSZ-AC, Design Supply Air Flow Rate [m3/s], 9.20117E-002
 Component Sizing Information, AirLoopHVAC, ZONE WAREHOUSE OFFICE B  - STORY GROUND PSZ-AC, Design Supply Air Flow Rate [m3/s], 0.15446
 Component Sizing Information, AirLoopHVAC, ZONE WAREHOUSE OFFICE C  - STORY GROUND PSZ-AC, Design Supply Air Flow Rate [m3/s], 9.20292E-002
!<Controller:MechanicalVentilation>,Name,Availability Schedule Name,Demand Controlled Ventilation {Yes/No},System Outdoor Air Method,Zone Maximum Outdoor Air Fraction,Number of Zones,Zone Name,DSOA Name,DSZAD Name
 Controller:MechanicalVentilation,CONTROLLER MECHANICAL VENTILATION 1,ALWAYS ON DISCRETE,No,ZoneSum,1.00,1,ZONE WAREHOUSE FINE A  - STORY GROUND,WAREHOUSE FINE VENTILATION,
 Controller:MechanicalVentilation,CONTROLLER MECHANICAL VENTILATION 2,ALWAYS ON DISCRETE,No,ZoneSum,1.00,1,ZONE WAREHOUSE FINE A END_B - STORY GROUND,WAREHOUSE FINE VENTILATION,
 Controller:MechanicalVentilation,CONTROLLER MECHANICAL VENTILATION 3,ALWAYS ON DISCRETE,No,ZoneSum,1.00,1,ZONE WAREHOUSE FINE B  - STORY GROUND,WAREHOUSE FINE VENTILATION,
 Controller:MechanicalVentilation,CONTROLLER MECHANICAL VENTILATION 4,ALWAYS ON DISCRETE,No,ZoneSum,1.00,1,ZONE WAREHOUSE FINE B END_B - STORY GROUND,WAREHOUSE FINE VENTILATION,
 Controller:MechanicalVentilation,CONTROLLER MECHANICAL VENTILATION 5,ALWAYS ON DISCRETE,No,ZoneSum,1.00,1,ZONE WAREHOUSE FINE C  - STORY GROUND,WAREHOUSE FINE VENTILATION,
 Controller:MechanicalVentilation,CONTROLLER MECHANICAL VENTILATION 6,ALWAYS ON DISCRETE,No,ZoneSum,1.00,1,ZONE WAREHOUSE FINE C END_B - STORY GROUND,WAREHOUSE FINE VENTILATION,
 Controller:MechanicalVentilation,CONTROLLER MECHANICAL VENTILATION 7,ALWAYS ON DISCRETE,No,ZoneSum,1.00,1,ZONE WAREHOUSE OFFICE A  - STORY GROUND,WAREHOUSE OFFICE VENTILATION,
 Controller:MechanicalVentilation,CONTROLLER MECHANICAL VENTILATION 8,ALWAYS ON DISCRETE,No,ZoneSum,1.00,1,ZONE WAREHOUSE OFFICE B  - STORY GROUND,WAREHOUSE OFFICE VENTILATION,
 Controller:MechanicalVentilation,CONTROLLER MECHANICAL VENTILATION 9,ALWAYS ON DISCRETE,No,ZoneSum,1.00,1,ZONE WAREHOUSE OFFICE C  - STORY GROUND,WAREHOUSE OFFICE VENTILATION,
 Component Sizing Information, Controller:OutdoorAir, ZONE WAREHOUSE FINE A  - STORY GROUND PSZ-AC OA SYSTEM CONTROLLER, Maximum Outdoor Air Flow Rate [m3/s], 7.86520E-002
 Component Sizing Information, Controller:OutdoorAir, ZONE WAREHOUSE FINE A  - STORY GROUND PSZ-AC OA SYSTEM CONTROLLER, Minimum Outdoor Air Flow Rate [m3/s], 5.93501E-003
 Component Sizing Information, AirLoopHVAC:UnitarySystem, ZONE WAREHOUSE FINE A  - STORY GROUND PSZ-AC UNITARY AC, Design Size Supply Air Flow Rate [m3/s], 7.86520E-002
 Component Sizing Information, AirLoopHVAC:UnitarySystem, ZONE WAREHOUSE FINE A  - STORY GROUND PSZ-AC UNITARY AC, Design Size Heating Supply Air Flow Rate [m3/s], 7.86520E-002
 Component Sizing Information, AirLoopHVAC:UnitarySystem, ZONE WAREHOUSE FINE A  - STORY GROUND PSZ-AC UNITARY AC, Design Size Cooling Supply Air Flow Rate [m3/s], 7.86520E-002
 Component Sizing Information, AirLoopHVAC:UnitarySystem, ZONE WAREHOUSE FINE A  - STORY GROUND PSZ-AC UNITARY AC, User-Specified No Load Supply Air Flow Rate [m3/s], 0.00000
 Component Sizing Information, AirLoopHVAC:UnitarySystem, ZONE WAREHOUSE FINE A  - STORY GROUND PSZ-AC UNITARY AC, Design Size Nominal Cooling Capacity [W], 1363.35301
 Component Sizing Information, Coil:Heating:Water, ZONE WAREHOUSE FINE A  - STORY GROUND PSZ-AC WATER HTG COIL, Design Size Rated Capacity [W], 3468.64388
 Component Sizing Information, Coil:Heating:Water, ZONE WAREHOUSE FINE A  - STORY GROUND PSZ-AC WATER HTG COIL, Design Size Maximum Water Flow Rate [m3/s], 7.58691E-005
 Component Sizing Information, Coil:Heating:Water, ZONE WAREHOUSE FINE A  - STORY GROUND PSZ-AC WATER HTG COIL, Design Size U-Factor Times Area Value [W/K], 81.74000
! <Water Heating Coil Capacity Information>,Component Type,Name,Nominal Total Capacity {W}
Water Heating Coil Capacity Information,Coil:Heating:Water,ZONE WAREHOUSE FINE A  - STORY GROUND PSZ-AC WATER HTG COIL,3314.22
 Component Sizing Information, AirLoopHVAC:UnitarySystem, ZONE WAREHOUSE FINE A  - STORY GROUND PSZ-AC UNITARY AC, Design Size Nominal Heating Capacity [W], 3468.64388
 Component Sizing Information, AirLoopHVAC:UnitarySystem, ZONE WAREHOUSE FINE A  - STORY GROUND PSZ-AC UNITARY AC, Design Size Maximum Supply Air Temperature [C], 50.00000
 Component Sizing Information, AirLoopHVAC:UnitarySystem, ZONE WAREHOUSE FINE A  - STORY GROUND PSZ-AC UNITARY AC, User-Specified Maximum Supply Air Temperature [C], 80.00000
 Component Sizing Information, AirLoopHVAC:UnitarySystem, ZONE WAREHOUSE FINE A  - STORY GROUND PSZ-AC UNITARY AC, User-Specified Supplemental Heating Coil Nominal Capacity [W], 3468.64388
 Component Sizing Information, AirLoopHVAC:UnitarySystem, ZONE WAREHOUSE FINE A  - STORY GROUND PSZ-AC UNITARY AC, Fraction of Supply Air Flow That Goes Through the Controlling Zone, 1.00000
 Component Sizing Information, Coil:Cooling:DX:SingleSpeed, ZONE WAREHOUSE FINE A  - STORY GROUND PSZ-AC 1SPD DX AC CLG COIL 5KBTU/HR 9.7SEER, Design Size Rated Air Flow Rate [m3/s], 7.86520E-002
 Component Sizing Information, Coil:Cooling:DX:SingleSpeed, ZONE WAREHOUSE FINE A  - STORY GROUND PSZ-AC 1SPD DX AC CLG COIL 5KBTU/HR 9.7SEER, Design Size Gross Rated Total Cooling Capacity [W], 1363.35301
 Component Sizing Information, Coil:Cooling:DX:SingleSpeed, ZONE WAREHOUSE FINE A  - STORY GROUND PSZ-AC 1SPD DX AC CLG COIL 5KBTU/HR 9.7SEER, Design Size Gross Rated Sensible Heat Ratio, 0.80010
! <DX Cooling Coil Standard Rating Information>, Component Type, Component Name, Standard Rating (Net) Cooling Capacity {W}, Standard Rated Net COP {W/W}, EER {Btu/W-h}, SEER User {Btu/W-h}, SEER Standard {Btu/W-h}, IEER {Btu/W-h}
 DX Cooling Coil Standard Rating Information, Coil:Cooling:DX:SingleSpeed, ZONE WAREHOUSE FINE A  - STORY GROUND PSZ-AC 1SPD DX AC CLG COIL 5KBTU/HR 9.7SEER, 1302.4, 2.64, 9.00, 10.34, 9.45, 9.85
 DX Cooling Coil Standard Rating Information, Coil:Cooling:DX:SingleSpeed, ZONE WAREHOUSE FINE A  - STORY GROUND PSZ-AC 1SPD DX AC CLG COIL 5KBTU/HR 9.7SEER, 1289.7, 2.55, 8.69, 9.95, 9.36,  
 Component Sizing Information, Fan:OnOff, ZONE WAREHOUSE FINE A  - STORY GROUND PSZ-AC FAN, Design Size Maximum Flow Rate [m3/s], 7.86520E-002
 Component Sizing Information, Coil:Heating:Electric, ZONE WAREHOUSE FINE A  - STORY GROUND PSZ-AC ELECTRIC BACKUP HTG COIL, Design Size Nominal Capacity [W], 3468.64388
 Component Sizing Information, Controller:OutdoorAir, ZONE WAREHOUSE FINE A END_B - STORY GROUND PSZ-AC OA SYSTEM CONTROLLER, Maximum Outdoor Air Flow Rate [m3/s], 0.13151
 Component Sizing Information, Controller:OutdoorAir, ZONE WAREHOUSE FINE A END_B - STORY GROUND PSZ-AC OA SYSTEM CONTROLLER, Minimum Outdoor Air Flow Rate [m3/s], 5.30941E-003
 Component Sizing Information, AirLoopHVAC:UnitarySystem, ZONE WAREHOUSE FINE A END_B - STORY GROUND PSZ-AC UNITARY AC, Design Size Supply Air Flow Rate [m3/s], 0.13151
 Component Sizing Information, AirLoopHVAC:UnitarySystem, ZONE WAREHOUSE FINE A END_B - STORY GROUND PSZ-AC UNITARY AC, Design Size Heating Supply Air Flow Rate [m3/s], 0.13151
 Component Sizing Information, AirLoopHVAC:UnitarySystem, ZONE WAREHOUSE FINE A END_B - STORY GROUND PSZ-AC UNITARY AC, Design Size Cooling Supply Air Flow Rate [m3/s], 0.13151
 Component Sizing Information, AirLoopHVAC:UnitarySystem, ZONE WAREHOUSE FINE A END_B - STORY GROUND PSZ-AC UNITARY AC, User-Specified No Load Supply Air Flow Rate [m3/s], 0.00000
 Component Sizing Information, AirLoopHVAC:UnitarySystem, ZONE WAREHOUSE FINE A END_B - STORY GROUND PSZ-AC UNITARY AC, Design Size Nominal Cooling Capacity [W], 2287.38000
 Component Sizing Information, Coil:Heating:Water, ZONE WAREHOUSE FINE A END_B - STORY GROUND PSZ-AC WATER HTG COIL, Design Size Rated Capacity [W], 5643.23630
 Component Sizing Information, Coil:Heating:Water, ZONE WAREHOUSE FINE A END_B - STORY GROUND PSZ-AC WATER HTG COIL, Design Size Maximum Water Flow Rate [m3/s], 1.23434E-004
 Component Sizing Information, Coil:Heating:Water, ZONE WAREHOUSE FINE A END_B - STORY GROUND PSZ-AC WATER HTG COIL, Design Size U-Factor Times Area Value [W/K], 134.31783
Water Heating Coil Capacity Information,Coil:Heating:Water,ZONE WAREHOUSE FINE A END_B - STORY GROUND PSZ-AC WATER HTG COIL,5470.41
 Component Sizing Information, AirLoopHVAC:UnitarySystem, ZONE WAREHOUSE FINE A END_B - STORY GROUND PSZ-AC UNITARY AC, Design Size Nominal Heating Capacity [W], 5643.23630
 Component Sizing Information, AirLoopHVAC:UnitarySystem, ZONE WAREHOUSE FINE A END_B - STORY GROUND PSZ-AC UNITARY AC, Design Size Maximum Supply Air Temperature [C], 50.00000
 Component Sizing Information, AirLoopHVAC:UnitarySystem, ZONE WAREHOUSE FINE A END_B - STORY GROUND PSZ-AC UNITARY AC, User-Specified Maximum Supply Air Temperature [C], 80.00000
 Component Sizing Information, AirLoopHVAC:UnitarySystem, ZONE WAREHOUSE FINE A END_B - STORY GROUND PSZ-AC UNITARY AC, User-Specified Supplemental Heating Coil Nominal Capacity [W], 5643.23630
 Component Sizing Information, AirLoopHVAC:UnitarySystem, ZONE WAREHOUSE FINE A END_B - STORY GROUND PSZ-AC UNITARY AC, Fraction of Supply Air Flow That Goes Through the Controlling Zone, 1.00000
 Component Sizing Information, Coil:Cooling:DX:SingleSpeed, ZONE WAREHOUSE FINE A END_B - STORY GROUND PSZ-AC 1SPD DX AC CLG COIL 8KBTU/HR 9.7SEER, Design Size Rated Air Flow Rate [m3/s], 0.13151
 Component Sizing Information, Coil:Cooling:DX:SingleSpeed, ZONE WAREHOUSE FINE A END_B - STORY GROUND PSZ-AC 1SPD DX AC CLG COIL 8KBTU/HR 9.7SEER, Design Size Gross Rated Total Cooling Capacity [W], 2287.38000
 Component Sizing Information, Coil:Cooling:DX:SingleSpeed, ZONE WAREHOUSE FINE A END_B - STORY GROUND PSZ-AC 1SPD DX AC CLG COIL 8KBTU/HR 9.7SEER, Design Size Gross Rated Sensible Heat Ratio, 0.80090
 DX Cooling Coil Standard Rating Information, Coil:Cooling:DX:SingleSpeed, ZONE WAREHOUSE FINE A END_B - STORY GROUND PSZ-AC 1SPD DX AC CLG COIL 8KBTU/HR 9.7SEER, 2185.5, 2.64, 9.00, 10.34, 9.46, 9.85
 DX Cooling Coil Standard Rating Information, Coil:Cooling:DX:SingleSpeed, ZONE WAREHOUSE FINE A END_B - STORY GROUND PSZ-AC 1SPD DX AC CLG COIL 8KBTU/HR 9.7SEER, 2164.3, 2.55, 8.69, 9.95, 9.36,  
 Component Sizing Information, Fan:OnOff, ZONE WAREHOUSE FINE A END_B - STORY GROUND PSZ-AC FAN, Design Size Maximum Flow Rate [m3/s], 0.13151
 Component Sizing Information, Coil:Heating:Electric, ZONE WAREHOUSE FINE A END_B - STORY GROUND PSZ-AC ELECTRIC BACKUP HTG COIL, Design Size Nominal Capacity [W], 5643.23630
 Component Sizing Information, Controller:OutdoorAir, ZONE WAREHOUSE FINE B  - STORY GROUND PSZ-AC OA SYSTEM CONTROLLER, Maximum Outdoor Air Flow Rate [m3/s], 4.82090E-002
 Component Sizing Information, Controller:OutdoorAir, ZONE WAREHOUSE FINE B  - STORY GROUND PSZ-AC OA SYSTEM CONTROLLER, Minimum Outdoor Air Flow Rate [m3/s], 1.72055E-002
 Component Sizing Information, AirLoopHVAC:UnitarySystem, ZONE WAREHOUSE FINE B  - STORY GROUND PSZ-AC UNITARY AC, Design Size Supply Air Flow Rate [m3/s], 4.82090E-002
 Component Sizing Information, AirLoopHVAC:UnitarySystem, ZONE WAREHOUSE FINE B  - STORY GROUND PSZ-AC UNITARY AC, Design Size Heating Supply Air Flow Rate [m3/s], 4.82090E-002
 Component Sizing Information, AirLoopHVAC:UnitarySystem, ZONE WAREHOUSE FINE B  - STORY GROUND PSZ-AC UNITARY AC, Design Size Cooling Supply Air Flow Rate [m3/s], 4.82090E-002
 Component Sizing Information, AirLoopHVAC:UnitarySystem, ZONE WAREHOUSE FINE B  - STORY GROUND PSZ-AC UNITARY AC, User-Specified No Load Supply Air Flow Rate [m3/s], 0.00000
 Component Sizing Information, AirLoopHVAC:UnitarySystem, ZONE WAREHOUSE FINE B  - STORY GROUND PSZ-AC UNITARY AC, Design Size Nominal Cooling Capacity [W], 826.53579
 Component Sizing Information, Coil:Heating:Water, ZONE WAREHOUSE FINE B  - STORY GROUND PSZ-AC WATER HTG COIL, Design Size Rated Capacity [W], 2589.28114
 Component Sizing Information, Coil:Heating:Water, ZONE WAREHOUSE FINE B  - STORY GROUND PSZ-AC WATER HTG COIL, Design Size Maximum Water Flow Rate [m3/s], 5.66349E-005
 Component Sizing Information, Coil:Heating:Water, ZONE WAREHOUSE FINE B  - STORY GROUND PSZ-AC WATER HTG COIL, Design Size U-Factor Times Area Value [W/K], 56.51389
Water Heating Coil Capacity Information,Coil:Heating:Water,ZONE WAREHOUSE FINE B  - STORY GROUND PSZ-AC WATER HTG COIL,2215.41
 Component Sizing Information, AirLoopHVAC:UnitarySystem, ZONE WAREHOUSE FINE B  - STORY GROUND PSZ-AC UNITARY AC, Design Size Nominal Heating Capacity [W], 2589.28114
 Component Sizing Information, AirLoopHVAC:UnitarySystem, ZONE WAREHOUSE FINE B  - STORY GROUND PSZ-AC UNITARY AC, Design Size Maximum Supply Air Temperature [C], 50.00000
 Component Sizing Information, AirLoopHVAC:UnitarySystem, ZONE WAREHOUSE FINE B  - STORY GROUND PSZ-AC UNITARY AC, User-Specified Maximum Supply Air Temperature [C], 80.00000
 Component Sizing Information, AirLoopHVAC:UnitarySystem, ZONE WAREHOUSE FINE B  - STORY GROUND PSZ-AC UNITARY AC, User-Specified Supplemental Heating Coil Nominal Capacity [W], 2589.28114
 Component Sizing Information, AirLoopHVAC:UnitarySystem, ZONE WAREHOUSE FINE B  - STORY GROUND PSZ-AC UNITARY AC, Fraction of Supply Air Flow That Goes Through the Controlling Zone, 1.00000
 Component Sizing Information, Coil:Cooling:DX:SingleSpeed, ZONE WAREHOUSE FINE B  - STORY GROUND PSZ-AC 1SPD DX AC CLG COIL 3KBTU/HR 9.7SEER, Design Size Rated Air Flow Rate [m3/s], 4.82090E-002
 Component Sizing Information, Coil:Cooling:DX:SingleSpeed, ZONE WAREHOUSE FINE B  - STORY GROUND PSZ-AC 1SPD DX AC CLG COIL 3KBTU/HR 9.7SEER, Design Size Gross Rated Total Cooling Capacity [W], 826.53579
 Component Sizing Information, Coil:Cooling:DX:SingleSpeed, ZONE WAREHOUSE FINE B  - STORY GROUND PSZ-AC 1SPD DX AC CLG COIL 3KBTU/HR 9.7SEER, Design Size Gross Rated Sensible Heat Ratio, 0.80098
 DX Cooling Coil Standard Rating Information, Coil:Cooling:DX:SingleSpeed, ZONE WAREHOUSE FINE B  - STORY GROUND PSZ-AC 1SPD DX AC CLG COIL 3KBTU/HR 9.7SEER, 789.2, 2.63, 8.98, 10.31, 9.43, 9.82
 DX Cooling Coil Standard Rating Information, Coil:Cooling:DX:SingleSpeed, ZONE WAREHOUSE FINE B  - STORY GROUND PSZ-AC 1SPD DX AC CLG COIL 3KBTU/HR 9.7SEER, 781.4, 2.54, 8.67, 9.92, 9.33,  
 Component Sizing Information, Fan:OnOff, ZONE WAREHOUSE FINE B  - STORY GROUND PSZ-AC FAN, Design Size Maximum Flow Rate [m3/s], 4.82090E-002
 Component Sizing Information, Coil:Heating:Electric, ZONE WAREHOUSE FINE B  - STORY GROUND PSZ-AC ELECTRIC BACKUP HTG COIL, Design Size Nominal Capacity [W], 2589.28114
 Component Sizing Information, Controller:OutdoorAir, ZONE WAREHOUSE FINE B END_B - STORY GROUND PSZ-AC OA SYSTEM CONTROLLER, Maximum Outdoor Air Flow Rate [m3/s], 0.19715
 Component Sizing Information, Controller:OutdoorAir, ZONE WAREHOUSE FINE B END_B - STORY GROUND PSZ-AC OA SYSTEM CONTROLLER, Minimum Outdoor Air Flow Rate [m3/s], 1.53919E-002
 Component Sizing Information, AirLoopHVAC:UnitarySystem, ZONE WAREHOUSE FINE B END_B - STORY GROUND PSZ-AC UNITARY AC, Design Size Supply Air Flow Rate [m3/s], 0.19715
 Component Sizing Information, AirLoopHVAC:UnitarySystem, ZONE WAREHOUSE FINE B END_B - STORY GROUND PSZ-AC UNITARY AC, Design Size Heating Supply Air Flow Rate [m3/s], 0.19715
 Component Sizing Information, AirLoopHVAC:UnitarySystem, ZONE WAREHOUSE FINE B END_B - STORY GROUND PSZ-AC UNITARY AC, Design Size Cooling Supply Air Flow Rate [m3/s], 0.19715
 Component Sizing Information, AirLoopHVAC:UnitarySystem, ZONE WAREHOUSE FINE B END_B - STORY GROUND PSZ-AC UNITARY AC, User-Specified No Load Supply Air Flow Rate [m3/s], 0.00000
 Component Sizing Information, AirLoopHVAC:UnitarySystem, ZONE WAREHOUSE FINE B END_B - STORY GROUND PSZ-AC UNITARY AC, Design Size Nominal Cooling Capacity [W], 3332.16867
 Component Sizing Information, Coil:Heating:Water, ZONE WAREHOUSE FINE B END_B - STORY GROUND PSZ-AC WATER HTG COIL, Design Size Rated Capacity [W], 8712.25062
 Component Sizing Information, Coil:Heating:Water, ZONE WAREHOUSE FINE B END_B - STORY GROUND PSZ-AC WATER HTG COIL, Design Size Maximum Water Flow Rate [m3/s], 1.90562E-004
 Component Sizing Information, Coil:Heating:Water, ZONE WAREHOUSE FINE B END_B - STORY GROUND PSZ-AC WATER HTG COIL, Design Size U-Factor Times Area Value [W/K], 205.16643
Water Heating Coil Capacity Information,Coil:Heating:Water,ZONE WAREHOUSE FINE B END_B - STORY GROUND PSZ-AC WATER HTG COIL,8315.67
 Component Sizing Information, AirLoopHVAC:UnitarySystem, ZONE WAREHOUSE FINE B END_B - STORY GROUND PSZ-AC UNITARY AC, Design Size Nominal Heating Capacity [W], 8712.25062
 Component Sizing Information, AirLoopHVAC:UnitarySystem, ZONE WAREHOUSE FINE B END_B - STORY GROUND PSZ-AC UNITARY AC, Design Size Maximum Supply Air Temperature [C], 50.00000
 Component Sizing Information, AirLoopHVAC:UnitarySystem, ZONE WAREHOUSE FINE B END_B - STORY GROUND PSZ-AC UNITARY AC, User-Specified Maximum Supply Air Temperature [C], 80.00000
 Component Sizing Information, AirLoopHVAC:UnitarySystem, ZONE WAREHOUSE FINE B END_B - STORY GROUND PSZ-AC UNITARY AC, User-Specified Supplemental Heating Coil Nominal Capacity [W], 8712.25062
 Component Sizing Information, AirLoopHVAC:UnitarySystem, ZONE WAREHOUSE FINE B END_B - STORY GROUND PSZ-AC UNITARY AC, Fraction of Supply Air Flow That Goes Through the Controlling Zone, 1.00000
 Component Sizing Information, Coil:Cooling:DX:SingleSpeed, ZONE WAREHOUSE FINE B END_B - STORY GROUND PSZ-AC 1SPD DX AC CLG COIL 11KBTU/HR 9.7SEER, Design Size Rated Air Flow Rate [m3/s], 0.19715
 Component Sizing Information, Coil:Cooling:DX:SingleSpeed, ZONE WAREHOUSE FINE B END_B - STORY GROUND PSZ-AC 1SPD DX AC CLG COIL 11KBTU/HR 9.7SEER, Design Size Gross Rated Total Cooling Capacity [W], 3332.16867
 Component Sizing Information, Coil:Cooling:DX:SingleSpeed, ZONE WAREHOUSE FINE B END_B - STORY GROUND PSZ-AC 1SPD DX AC CLG COIL 11KBTU/HR 9.7SEER, Design Size Gross Rated Sensible Heat Ratio, 0.80008
 DX Cooling Coil Standard Rating Information, Coil:Cooling:DX:SingleSpeed, ZONE WAREHOUSE FINE B END_B - STORY GROUND PSZ-AC 1SPD DX AC CLG COIL 11KBTU/HR 9.7SEER, 3179.4, 2.63, 8.96, 10.29, 9.41, 9.78
 DX Cooling Coil Standard Rating Information, Coil:Cooling:DX:SingleSpeed, ZONE WAREHOUSE FINE B END_B - STORY GROUND PSZ-AC 1SPD DX AC CLG COIL 11KBTU/HR 9.7SEER, 3147.6, 2.53, 8.64, 9.89, 9.30,  
 Component Sizing Information, Fan:OnOff, ZONE WAREHOUSE FINE B END_B - STORY GROUND PSZ-AC FAN, Design Size Maximum Flow Rate [m3/s], 0.19715
 Component Sizing Information, Coil:Heating:Electric, ZONE WAREHOUSE FINE B END_B - STORY GROUND PSZ-AC ELECTRIC BACKUP HTG COIL, Design Size Nominal Capacity [W], 8712.25062
 Component Sizing Information, Controller:OutdoorAir, ZONE WAREHOUSE FINE C  - STORY GROUND PSZ-AC OA SYSTEM CONTROLLER, Maximum Outdoor Air Flow Rate [m3/s], 7.86791E-002
 Component Sizing Information, Controller:OutdoorAir, ZONE WAREHOUSE FINE C  - STORY GROUND PSZ-AC OA SYSTEM CONTROLLER, Minimum Outdoor Air Flow Rate [m3/s], 5.93501E-003
 Component Sizing Information, AirLoopHVAC:UnitarySystem, ZONE WAREHOUSE FINE C  - STORY GROUND PSZ-AC UNITARY AC, Design Size Supply Air Flow Rate [m3/s], 7.86791E-002
 Component Sizing Information, AirLoopHVAC:UnitarySystem, ZONE WAREHOUSE FINE C  - STORY GROUND PSZ-AC UNITARY AC, Design Size Heating Supply Air Flow Rate [m3/s], 7.86791E-002
 Component Sizing Information, AirLoopHVAC:UnitarySystem, ZONE WAREHOUSE FINE C  - STORY GROUND PSZ-AC UNITARY AC, Design Size Cooling Supply Air Flow Rate [m3/s], 7.86791E-002
 Component Sizing Information, AirLoopHVAC:UnitarySystem, ZONE WAREHOUSE FINE C  - STORY GROUND PSZ-AC UNITARY AC, User-Specified No Load Supply Air Flow Rate [m3/s], 0.00000
 Component Sizing Information, AirLoopHVAC:UnitarySystem, ZONE WAREHOUSE FINE C  - STORY GROUND PSZ-AC UNITARY AC, Design Size Nominal Cooling Capacity [W], 1302.41859
 Component Sizing Information, Coil:Heating:Water, ZONE WAREHOUSE FINE C  - STORY GROUND PSZ-AC WATER HTG COIL, Design Size Rated Capacity [W], 3469.76848
 Component Sizing Information, Coil:Heating:Water, ZONE WAREHOUSE FINE C  - STORY GROUND PSZ-AC WATER HTG COIL, Design Size Maximum Water Flow Rate [m3/s], 7.58937E-005
 Component Sizing Information, Coil:Heating:Water, ZONE WAREHOUSE FINE C  - STORY GROUND PSZ-AC WATER HTG COIL, Design Size U-Factor Times Area Value [W/K], 81.76705
Water Heating Coil Capacity Information,Coil:Heating:Water,ZONE WAREHOUSE FINE C  - STORY GROUND PSZ-AC WATER HTG COIL,3315.32
 Component Sizing Information, AirLoopHVAC:UnitarySystem, ZONE WAREHOUSE FINE C  - STORY GROUND PSZ-AC UNITARY AC, Design Size Nominal Heating Capacity [W], 3469.76848
 Component Sizing Information, AirLoopHVAC:UnitarySystem, ZONE WAREHOUSE FINE C  - STORY GROUND PSZ-AC UNITARY AC, Design Size Maximum Supply Air Temperature [C], 50.00000
 Component Sizing Information, AirLoopHVAC:UnitarySystem, ZONE WAREHOUSE FINE C  - STORY GROUND PSZ-AC UNITARY AC, User-Specified Maximum Supply Air Temperature [C], 80.00000
 Component Sizing Information, AirLoopHVAC:UnitarySystem, ZONE WAREHOUSE FINE C  - STORY GROUND PSZ-AC UNITARY AC, User-Specified Supplemental Heating Coil Nominal Capacity [W], 3469.76848
 Component Sizing Information, AirLoopHVAC:UnitarySystem, ZONE WAREHOUSE FINE C  - STORY GROUND PSZ-AC UNITARY AC, Fraction of Supply Air Flow That Goes Through the Controlling Zone, 1.00000
 Component Sizing Information, Coil:Cooling:DX:SingleSpeed, ZONE WAREHOUSE FINE C  - STORY GROUND PSZ-AC 1SPD DX AC CLG COIL 4KBTU/HR 9.7SEER, Design Size Rated Air Flow Rate [m3/s], 7.86791E-002
 Component Sizing Information, Coil:Cooling:DX:SingleSpeed, ZONE WAREHOUSE FINE C  - STORY GROUND PSZ-AC 1SPD DX AC CLG COIL 4KBTU/HR 9.7SEER, Design Size Gross Rated Total Cooling Capacity [W], 1302.41859
 Component Sizing Information, Coil:Cooling:DX:SingleSpeed, ZONE WAREHOUSE FINE C  - STORY GROUND PSZ-AC 1SPD DX AC CLG COIL 4KBTU/HR 9.7SEER, Design Size Gross Rated Sensible Heat Ratio, 0.80066
 DX Cooling Coil Standard Rating Information, Coil:Cooling:DX:SingleSpeed, ZONE WAREHOUSE FINE C  - STORY GROUND PSZ-AC 1SPD DX AC CLG COIL 4KBTU/HR 9.7SEER, 1241.4, 2.62, 8.92, 10.25, 9.37, 9.72
 DX Cooling Coil Standard Rating Information, Coil:Cooling:DX:SingleSpeed, ZONE WAREHOUSE FINE C  - STORY GROUND PSZ-AC 1SPD DX AC CLG COIL 4KBTU/HR 9.7SEER, 1228.8, 2.52, 8.60, 9.84, 9.26,  
 Component Sizing Information, Fan:OnOff, ZONE WAREHOUSE FINE C  - STORY GROUND PSZ-AC FAN, Design Size Maximum Flow Rate [m3/s], 7.86791E-002
 Component Sizing Information, Coil:Heating:Electric, ZONE WAREHOUSE FINE C  - STORY GROUND PSZ-AC ELECTRIC BACKUP HTG COIL, Design Size Nominal Capacity [W], 3469.76848
 Component Sizing Information, Controller:OutdoorAir, ZONE WAREHOUSE FINE C END_B - STORY GROUND PSZ-AC OA SYSTEM CONTROLLER, Maximum Outdoor Air Flow Rate [m3/s], 0.13153
 Component Sizing Information, Controller:OutdoorAir, ZONE WAREHOUSE FINE C END_B - STORY GROUND PSZ-AC OA SYSTEM CONTROLLER, Minimum Outdoor Air Flow Rate [m3/s], 5.30941E-003
 Component Sizing Information, AirLoopHVAC:UnitarySystem, ZONE WAREHOUSE FINE C END_B - STORY GROUND PSZ-AC UNITARY AC, Design Size Supply Air Flow Rate [m3/s], 0.13153
 Component Sizing Information, AirLoopHVAC:UnitarySystem, ZONE WAREHOUSE FINE C END_B - STORY GROUND PSZ-AC UNITARY AC, Design Size Heating Supply Air Flow Rate [m3/s], 0.13153
 Component Sizing Information, AirLoopHVAC:UnitarySystem, ZONE WAREHOUSE FINE C END_B - STORY GROUND PSZ-AC UNITARY AC, Design Size Cooling Supply Air Flow Rate [m3/s], 0.13153
 Component Sizing Information, AirLoopHVAC:UnitarySystem, ZONE WAREHOUSE FINE C END_B - STORY GROUND PSZ-AC UNITARY AC, User-Specified No Load Supply Air Flow Rate [m3/s], 0.00000
 Component Sizing Information, AirLoopHVAC:UnitarySystem, ZONE WAREHOUSE FINE C END_B - STORY GROUND PSZ-AC UNITARY AC, Design Size Nominal Cooling Capacity [W], 2177.31133
[...]
 Component Sizing Information, AirLoopHVAC:UnitarySystem, ZONE WAREHOUSE FINE C END_B - STORY GROUND PSZ-AC UNITARY AC, Design Size Maximum Supply Air Temperature [C], 50.00000
 Component Sizing Information, AirLoopHVAC:UnitarySystem, ZONE WAREHOUSE FINE C END_B - STORY GROUND PSZ-AC UNITARY AC, User-Specified Maximum Supply Air Temperature [C], 80.00000
 Component Sizing Information, AirLoopHVAC:UnitarySystem, ZONE WAREHOUSE FINE C END_B - STORY GROUND PSZ-AC UNITARY AC, User-Specified Supplemental Heating Coil Nominal Capacity [W], 5644.18128
 Component Sizing Information, AirLoopHVAC:UnitarySystem, ZONE WAREHOUSE FINE C END_B - STORY GROUND PSZ-AC UNITARY AC, Fraction of Supply Air Flow That Goes Through the Controlling Zone, 1.00000
 Component Sizing Information, Coil:Cooling:DX:SingleSpeed, ZONE WAREHOUSE FINE C END_B - STORY GROUND PSZ-AC 1SPD DX AC CLG COIL 7KBTU/HR 9.7SEER, Design Size Rated Air Flow Rate [m3/s], 0.13153
 Component Sizing Information, Coil:Cooling:DX:SingleSpeed, ZONE WAREHOUSE FINE C END_B - STORY GROUND PSZ-AC 1SPD DX AC CLG COIL 7KBTU/HR 9.7SEER, Design Size Gross Rated Total Cooling Capacity [W], 2177.31133
 Component Sizing Information, Coil:Cooling:DX:SingleSpeed, ZONE WAREHOUSE FINE C END_B - STORY GROUND PSZ-AC 1SPD DX AC CLG COIL 7KBTU/HR 9.7SEER, Design Size Gross Rated Sensible Heat Ratio, 0.80066
 DX Cooling Coil Standard Rating Information, Coil:Cooling:DX:SingleSpeed, ZONE WAREHOUSE FINE C END_B - STORY GROUND PSZ-AC 1SPD DX AC CLG COIL 7KBTU/HR 9.7SEER, 2075.4, 2.62, 8.92, 10.25, 9.37, 9.72
 DX Cooling Coil Standard Rating Information, Coil:Cooling:DX:SingleSpeed, ZONE WAREHOUSE FINE C END_B - STORY GROUND PSZ-AC 1SPD DX AC CLG COIL 7KBTU/HR 9.7SEER, 2054.2, 2.52, 8.60, 9.84, 9.26,  
 Component Sizing Information, Fan:OnOff, ZONE WAREHOUSE FINE C END_B - STORY GROUND PSZ-AC FAN, Design Size Maximum Flow Rate [m3/s], 0.13153
 Component Sizing Information, Coil:Heating:Electric, ZONE WAREHOUSE FINE C END_B - STORY GROUND PSZ-AC ELECTRIC BACKUP HTG COIL, Design Size Nominal Capacity [W], 5644.18128
 Component Sizing Information, Controller:OutdoorAir, ZONE WAREHOUSE OFFICE A  - STORY GROUND PSZ-AC OA SYSTEM CONTROLLER, Maximum Outdoor Air Flow Rate [m3/s], 9.20117E-002
 Component Sizing Information, Controller:OutdoorAir, ZONE WAREHOUSE OFFICE A  - STORY GROUND PSZ-AC OA SYSTEM CONTROLLER, Minimum Outdoor Air Flow Rate [m3/s], 1.49884E-003
 Component Sizing Information, AirLoopHVAC:UnitarySystem, ZONE WAREHOUSE OFFICE A  - STORY GROUND PSZ-AC UNITARY AC, Design Size Supply Air Flow Rate [m3/s], 9.20117E-002
 Component Sizing Information, AirLoopHVAC:UnitarySystem, ZONE WAREHOUSE OFFICE A  - STORY GROUND PSZ-AC UNITARY AC, Design Size Heating Supply Air Flow Rate [m3/s], 9.20117E-002
 Component Sizing Information, AirLoopHVAC:UnitarySystem, ZONE WAREHOUSE OFFICE A  - STORY GROUND PSZ-AC UNITARY AC, Design Size Cooling Supply Air Flow Rate [m3/s], 9.20117E-002
 Component Sizing Information, AirLoopHVAC:UnitarySystem, ZONE WAREHOUSE OFFICE A  - STORY GROUND PSZ-AC UNITARY AC, User-Specified No Load Supply Air Flow Rate [m3/s], 0.00000
 Component Sizing Information, AirLoopHVAC:UnitarySystem, ZONE WAREHOUSE OFFICE A  - STORY GROUND PSZ-AC UNITARY AC, Design Size Nominal Cooling Capacity [W], 1523.12095
 Component Sizing Information, Coil:Heating:Water, ZONE WAREHOUSE OFFICE A  - STORY GROUND PSZ-AC WATER HTG COIL, Design Size Rated Capacity [W], 3284.82804
 Component Sizing Information, Coil:Heating:Water, ZONE WAREHOUSE OFFICE A  - STORY GROUND PSZ-AC WATER HTG COIL, Design Size Maximum Water Flow Rate [m3/s], 7.18485E-005
 Component Sizing Information, Coil:Heating:Water, ZONE WAREHOUSE OFFICE A  - STORY GROUND PSZ-AC WATER HTG COIL, Design Size U-Factor Times Area Value [W/K], 83.26594
Water Heating Coil Capacity Information,Coil:Heating:Water,ZONE WAREHOUSE OFFICE A  - STORY GROUND PSZ-AC WATER HTG COIL,3489.35
 Component Sizing Information, AirLoopHVAC:UnitarySystem, ZONE WAREHOUSE OFFICE A  - STORY GROUND PSZ-AC UNITARY AC, Design Size Nominal Heating Capacity [W], 3284.82804
 Component Sizing Information, AirLoopHVAC:UnitarySystem, ZONE WAREHOUSE OFFICE A  - STORY GROUND PSZ-AC UNITARY AC, Design Size Maximum Supply Air Temperature [C], 50.00000
 Component Sizing Information, AirLoopHVAC:UnitarySystem, ZONE WAREHOUSE OFFICE A  - STORY GROUND PSZ-AC UNITARY AC, User-Specified Maximum Supply Air Temperature [C], 80.00000
 Component Sizing Information, AirLoopHVAC:UnitarySystem, ZONE WAREHOUSE OFFICE A  - STORY GROUND PSZ-AC UNITARY AC, User-Specified Supplemental Heating Coil Nominal Capacity [W], 3284.82804
 Component Sizing Information, AirLoopHVAC:UnitarySystem, ZONE WAREHOUSE OFFICE A  - STORY GROUND PSZ-AC UNITARY AC, Fraction of Supply Air Flow That Goes Through the Controlling Zone, 1.00000
 Component Sizing Information, Coil:Cooling:DX:SingleSpeed, ZONE WAREHOUSE OFFICE A  - STORY GROUND PSZ-AC 1SPD DX AC CLG COIL 5KBTU/HR 9.7SEER, Design Size Rated Air Flow Rate [m3/s], 9.20117E-002
 Component Sizing Information, Coil:Cooling:DX:SingleSpeed, ZONE WAREHOUSE OFFICE A  - STORY GROUND PSZ-AC 1SPD DX AC CLG COIL 5KBTU/HR 9.7SEER, Design Size Gross Rated Total Cooling Capacity [W], 1523.12095
 Component Sizing Information, Coil:Cooling:DX:SingleSpeed, ZONE WAREHOUSE OFFICE A  - STORY GROUND PSZ-AC 1SPD DX AC CLG COIL 5KBTU/HR 9.7SEER, Design Size Gross Rated Sensible Heat Ratio, 0.80066
 DX Cooling Coil Standard Rating Information, Coil:Cooling:DX:SingleSpeed, ZONE WAREHOUSE OFFICE A  - STORY GROUND PSZ-AC 1SPD DX AC CLG COIL 5KBTU/HR 9.7SEER, 1451.8, 2.62, 8.92, 10.25, 9.37, 9.72
 DX Cooling Coil Standard Rating Information, Coil:Cooling:DX:SingleSpeed, ZONE WAREHOUSE OFFICE A  - STORY GROUND PSZ-AC 1SPD DX AC CLG COIL 5KBTU/HR 9.7SEER, 1437.0, 2.52, 8.60, 9.84, 9.26,  
 Component Sizing Information, Fan:OnOff, ZONE WAREHOUSE OFFICE A  - STORY GROUND PSZ-AC FAN, Design Size Maximum Flow Rate [m3/s], 9.20117E-002
 Component Sizing Information, Coil:Heating:Electric, ZONE WAREHOUSE OFFICE A  - STORY GROUND PSZ-AC ELECTRIC BACKUP HTG COIL, Design Size Nominal Capacity [W], 3284.82804
 Component Sizing Information, Controller:OutdoorAir, ZONE WAREHOUSE OFFICE B  - STORY GROUND PSZ-AC OA SYSTEM CONTROLLER, Maximum Outdoor Air Flow Rate [m3/s], 0.15446
 Component Sizing Information, Controller:OutdoorAir, ZONE WAREHOUSE OFFICE B  - STORY GROUND PSZ-AC OA SYSTEM CONTROLLER, Minimum Outdoor Air Flow Rate [m3/s], 4.34511E-003
 Component Sizing Information, AirLoopHVAC:UnitarySystem, ZONE WAREHOUSE OFFICE B  - STORY GROUND PSZ-AC UNITARY AC, Design Size Supply Air Flow Rate [m3/s], 0.15446
 Component Sizing Information, AirLoopHVAC:UnitarySystem, ZONE WAREHOUSE OFFICE B  - STORY GROUND PSZ-AC UNITARY AC, Design Size Heating Supply Air Flow Rate [m3/s], 0.15446
 Component Sizing Information, AirLoopHVAC:UnitarySystem, ZONE WAREHOUSE OFFICE B  - STORY GROUND PSZ-AC UNITARY AC, Design Size Cooling Supply Air Flow Rate [m3/s], 0.15446
 Component Sizing Information, AirLoopHVAC:UnitarySystem, ZONE WAREHOUSE OFFICE B  - STORY GROUND PSZ-AC UNITARY AC, User-Specified No Load Supply Air Flow Rate [m3/s], 0.00000
 Component Sizing Information, AirLoopHVAC:UnitarySystem, ZONE WAREHOUSE OFFICE B  - STORY GROUND PSZ-AC UNITARY AC, Design Size Nominal Cooling Capacity [W], 2556.85749
 Component Sizing Information, Coil:Heating:Water, ZONE WAREHOUSE OFFICE B  - STORY GROUND PSZ-AC WATER HTG COIL, Design Size Rated Capacity [W], 5586.69332
 Component Sizing Information, Coil:Heating:Water, ZONE WAREHOUSE OFFICE B  - STORY GROUND PSZ-AC WATER HTG COIL, Design Size Maximum Water Flow Rate [m3/s], 1.22197E-004
 Component Sizing Information, Coil:Heating:Water, ZONE WAREHOUSE OFFICE B  - STORY GROUND PSZ-AC WATER HTG COIL, Design Size U-Factor Times Area Value [W/K], 140.86014
Water Heating Coil Capacity Information,Coil:Heating:Water,ZONE WAREHOUSE OFFICE B  - STORY GROUND PSZ-AC WATER HTG COIL,5893.89
 Component Sizing Information, AirLoopHVAC:UnitarySystem, ZONE WAREHOUSE OFFICE B  - STORY GROUND PSZ-AC UNITARY AC, Design Size Nominal Heating Capacity [W], 5586.69332
 Component Sizing Information, AirLoopHVAC:UnitarySystem, ZONE WAREHOUSE OFFICE B  - STORY GROUND PSZ-AC UNITARY AC, Design Size Maximum Supply Air Temperature [C], 50.00000
 Component Sizing Information, AirLoopHVAC:UnitarySystem, ZONE WAREHOUSE OFFICE B  - STORY GROUND PSZ-AC UNITARY AC, User-Specified Maximum Supply Air Temperature [C], 80.00000
 Component Sizing Information, AirLoopHVAC:UnitarySystem, ZONE WAREHOUSE OFFICE B  - STORY GROUND PSZ-AC UNITARY AC, User-Specified Supplemental Heating Coil Nominal Capacity [W], 5586.69332
 Component Sizing Information, AirLoopHVAC:UnitarySystem, ZONE WAREHOUSE OFFICE B  - STORY GROUND PSZ-AC UNITARY AC, Fraction of Supply Air Flow That Goes Through the Controlling Zone, 1.00000
 Component Sizing Information, Coil:Cooling:DX:SingleSpeed, ZONE WAREHOUSE OFFICE B  - STORY GROUND PSZ-AC 1SPD DX AC CLG COIL 8KBTU/HR 9.7SEER, Design Size Rated Air Flow Rate [m3/s], 0.15446
 Component Sizing Information, Coil:Cooling:DX:SingleSpeed, ZONE WAREHOUSE OFFICE B  - STORY GROUND PSZ-AC 1SPD DX AC CLG COIL 8KBTU/HR 9.7SEER, Design Size Gross Rated Total Cooling Capacity [W], 2556.85749
 Component Sizing Information, Coil:Cooling:DX:SingleSpeed, ZONE WAREHOUSE OFFICE B  - STORY GROUND PSZ-AC 1SPD DX AC CLG COIL 8KBTU/HR 9.7SEER, Design Size Gross Rated Sensible Heat Ratio, 0.80066
 DX Cooling Coil Standard Rating Information, Coil:Cooling:DX:SingleSpeed, ZONE WAREHOUSE OFFICE B  - STORY GROUND PSZ-AC 1SPD DX AC CLG COIL 8KBTU/HR 9.7SEER, 2437.2, 2.62, 8.92, 10.25, 9.37, 9.72
 DX Cooling Coil Standard Rating Information, Coil:Cooling:DX:SingleSpeed, ZONE WAREHOUSE OFFICE B  - STORY GROUND PSZ-AC 1SPD DX AC CLG COIL 8KBTU/HR 9.7SEER, 2412.3, 2.52, 8.60, 9.84, 9.26,  
 Component Sizing Information, Fan:OnOff, ZONE WAREHOUSE OFFICE B  - STORY GROUND PSZ-AC FAN, Design Size Maximum Flow Rate [m3/s], 0.15446
 Component Sizing Information, Coil:Heating:Electric, ZONE WAREHOUSE OFFICE B  - STORY GROUND PSZ-AC ELECTRIC BACKUP HTG COIL, Design Size Nominal Capacity [W], 5586.69332
 Component Sizing Information, Controller:OutdoorAir, ZONE WAREHOUSE OFFICE C  - STORY GROUND PSZ-AC OA SYSTEM CONTROLLER, Maximum Outdoor Air Flow Rate [m3/s], 9.20292E-002
 Component Sizing Information, Controller:OutdoorAir, ZONE WAREHOUSE OFFICE C  - STORY GROUND PSZ-AC OA SYSTEM CONTROLLER, Minimum Outdoor Air Flow Rate [m3/s], 1.49884E-003
 Component Sizing Information, AirLoopHVAC:UnitarySystem, ZONE WAREHOUSE OFFICE C  - STORY GROUND PSZ-AC UNITARY AC, Design Size Supply Air Flow Rate [m3/s], 9.20292E-002
 Component Sizing Information, AirLoopHVAC:UnitarySystem, ZONE WAREHOUSE OFFICE C  - STORY GROUND PSZ-AC UNITARY AC, Design Size Heating Supply Air Flow Rate [m3/s], 9.20292E-002
 Component Sizing Information, AirLoopHVAC:UnitarySystem, ZONE WAREHOUSE OFFICE C  - STORY GROUND PSZ-AC UNITARY AC, Design Size Cooling Supply Air Flow Rate [m3/s], 9.20292E-002
 Component Sizing Information, AirLoopHVAC:UnitarySystem, ZONE WAREHOUSE OFFICE C  - STORY GROUND PSZ-AC UNITARY AC, User-Specified No Load Supply Air Flow Rate [m3/s], 0.00000
 Component Sizing Information, AirLoopHVAC:UnitarySystem, ZONE WAREHOUSE OFFICE C  - STORY GROUND PSZ-AC UNITARY AC, Design Size Nominal Cooling Capacity [W], 1523.40948
 Component Sizing Information, Coil:Heating:Water, ZONE WAREHOUSE OFFICE C  - STORY GROUND PSZ-AC WATER HTG COIL, Design Size Rated Capacity [W], 3285.43891
 Component Sizing Information, Coil:Heating:Water, ZONE WAREHOUSE OFFICE C  - STORY GROUND PSZ-AC WATER HTG COIL, Design Size Maximum Water Flow Rate [m3/s], 7.18619E-005
 Component Sizing Information, Coil:Heating:Water, ZONE WAREHOUSE OFFICE C  - STORY GROUND PSZ-AC WATER HTG COIL, Design Size U-Factor Times Area Value [W/K], 83.28151
Water Heating Coil Capacity Information,Coil:Heating:Water,ZONE WAREHOUSE OFFICE C  - STORY GROUND PSZ-AC WATER HTG COIL,3490.00
 Component Sizing Information, AirLoopHVAC:UnitarySystem, ZONE WAREHOUSE OFFICE C  - STORY GROUND PSZ-AC UNITARY AC, Design Size Nominal Heating Capacity [W], 3285.43891
 Component Sizing Information, AirLoopHVAC:UnitarySystem, ZONE WAREHOUSE OFFICE C  - STORY GROUND PSZ-AC UNITARY AC, Design Size Maximum Supply Air Temperature [C], 50.00000
 Component Sizing Information, AirLoopHVAC:UnitarySystem, ZONE WAREHOUSE OFFICE C  - STORY GROUND PSZ-AC UNITARY AC, User-Specified Maximum Supply Air Temperature [C], 80.00000
 Component Sizing Information, AirLoopHVAC:UnitarySystem, ZONE WAREHOUSE OFFICE C  - STORY GROUND PSZ-AC UNITARY AC, User-Specified Supplemental Heating Coil Nominal Capacity [W], 3285.43891
 Component Sizing Information, AirLoopHVAC:UnitarySystem, ZONE WAREHOUSE OFFICE C  - STORY GROUND PSZ-AC UNITARY AC, Fraction of Supply Air Flow That Goes Through the Controlling Zone, 1.00000
 Component Sizing Information, Coil:Cooling:DX:SingleSpeed, ZONE WAREHOUSE OFFICE C  - STORY GROUND PSZ-AC 1SPD DX AC CLG COIL 5KBTU/HR 9.7SEER, Design Size Rated Air Flow Rate [m3/s], 9.20292E-002
 Component Sizing Information, Coil:Cooling:DX:SingleSpeed, ZONE WAREHOUSE OFFICE C  - STORY GROUND PSZ-AC 1SPD DX AC CLG COIL 5KBTU/HR 9.7SEER, Design Size Gross Rated Total Cooling Capacity [W], 1523.40948
 Component Sizing Information, Coil:Cooling:DX:SingleSpeed, ZONE WAREHOUSE OFFICE C  - STORY GROUND PSZ-AC 1SPD DX AC CLG COIL 5KBTU/HR 9.7SEER, Design Size Gross Rated Sensible Heat Ratio, 0.80066
 DX Cooling Coil Standard Rating Information, Coil:Cooling:DX:SingleSpeed, ZONE WAREHOUSE OFFICE C  - STORY GROUND PSZ-AC 1SPD DX AC CLG COIL 5KBTU/HR 9.7SEER, 1452.1, 2.62, 8.92, 10.25, 9.37, 9.72
 DX Cooling Coil Standard Rating Information, Coil:Cooling:DX:SingleSpeed, ZONE WAREHOUSE OFFICE C  - STORY GROUND PSZ-AC 1SPD DX AC CLG COIL 5KBTU/HR 9.7SEER, 1437.3, 2.52, 8.60, 9.84, 9.26,  
 Component Sizing Information, Fan:OnOff, ZONE WAREHOUSE OFFICE C  - STORY GROUND PSZ-AC FAN, Design Size Maximum Flow Rate [m3/s], 9.20292E-002
 Component Sizing Information, Coil:Heating:Electric, ZONE WAREHOUSE OFFICE C  - STORY GROUND PSZ-AC ELECTRIC BACKUP HTG COIL, Design Size Nominal Capacity [W], 3285.43891
Water Heater Information,WaterHeater:Mixed,40GAL ELECTRICITY WATER HEATER - 40KBTU/HR 1.0 THERM EFF 1.0 THERM EFF,0.1514,11722.8,0.979,0.4528
 Component Sizing Information, PlantLoop, HOT WATER LOOP, Maximum Loop Flow Rate [m3/s], 1.48237E-003
 Component Sizing Information, PlantLoop, HOT WATER LOOP, Plant Loop Volume [m3], 0.17788
 Component Sizing Information, Pump:VariableSpeed, HOT WATER LOOP PUMP, Design Flow Rate [m3/s], 1.48237E-003
 Component Sizing Information, Pump:VariableSpeed, HOT WATER LOOP PUMP, Design Power Consumption [W], 413.13817
 Component Sizing Information, DistrictHeating, HOT WATER LOOP DISTRICT HEATING, Design Size Nominal Capacity [W], 69136.17847
 Component Sizing Information, PlantLoop, MAIN SERVICE WATER LOOP, Maximum Loop Flow Rate [m3/s], 0.00000
 Component Sizing Information, PlantLoop, MAIN SERVICE WATER LOOP, Plant Loop Volume [m3], 0.00000
 Component Sizing Information, Pump:VariableSpeed, MAIN SERVICE WATER LOOP WATER MAINS PRESSURE DRIVEN, Design Flow Rate [m3/s], 0.00000
 Component Sizing Information, Pump:VariableSpeed, MAIN SERVICE WATER LOOP WATER MAINS PRESSURE DRIVEN, Design Power Consumption [W], 0.00000
 Component Sizing Information, WaterHeater:Mixed, 40GAL ELECTRICITY WATER HEATER - 40KBTU/HR 1.0 THERM EFF 1.0 THERM EFF, Use Side Design Flow Rate [m3/s], 0.00000
! <Environment>,Environment Name,Environment Type, Start Date, End Date, Start DayOfWeek, Duration {#days}, Source:Start DayOfWeek,  Use Daylight Saving, Use Holidays, Apply Weekend Holiday Rule,  Use Rain Values, Use Snow Values, Sky Temperature Model
! <Environment:Special Days>, Special Day Name, Special Day Type, Source, Start Date, Duration {#days}
! <Environment:Daylight Saving>, Daylight Saving Indicator, Source, Start Date, End Date
! <Environment:WarmupDays>, NumberofWarmupDays
Environment,RUN PERIOD 1,WeatherFileRunPeriod,01/01/2020,12/31/2020,Wednesday,366,Use RunPeriod Specified Day,No,No,No,Yes,Yes,Clark and Allen
Environment:Daylight Saving,Yes,InputFile,03/09,11/02
Environment:WarmupDays,  7
! <Tabular Report>,Style,Unit Conversion
Tabular Report,HTML,None
! <Warmup Convergence Information>,Zone Name,Environment Type/Name,Average Warmup Temperature Difference {deltaC},Std Dev Warmup Temperature Difference {deltaC},Max Temperature Pass/Fail Convergence,Min Temperature Pass/Fail Convergence,Average Warmup Load Difference {W},Std Dev Warmup Load Difference {W},Heating Load Pass/Fail Convergence,Cooling Load Pass/Fail Convergence
 Warmup Convergence Information,ZONE WAREHOUSE BULK A  - STORY GROUND,RunPeriod: RUN PERIOD 1,7.5111387227E-004,5.3511066159E-004,Pass,Pass,7.0559929762E-003,6.9876176285E-003,Pass,Pass
 Warmup Convergence Information,ZONE WAREHOUSE BULK A END_A - STORY GROUND,RunPeriod: RUN PERIOD 1,1.4084197949E-003,1.0873272293E-003,Pass,Pass,4.7384673762E-003,5.0331039278E-003,Pass,Pass
 Warmup Convergence Information,ZONE WAREHOUSE BULK B  - STORY GROUND,RunPeriod: RUN PERIOD 1,2.2954843773E-002,2.0176556878E-002,Pass,Pass,0.0000000000,0.0000000000,Pass,Pass
 Warmup Convergence Information,ZONE WAREHOUSE BULK B END_A - STORY GROUND,RunPeriod: RUN PERIOD 1,7.5291738018E-004,5.5470656993E-004,Pass,Pass,4.8576763214E-003,5.3340969521E-003,Pass,Pass
 Warmup Convergence Information,ZONE WAREHOUSE BULK C  - STORY GROUND,RunPeriod: RUN PERIOD 1,7.5897296247E-004,5.3161446551E-004,Pass,Pass,5.1907632440E-003,6.2656006645E-003,Pass,Pass
 Warmup Convergence Information,ZONE WAREHOUSE BULK C END_A - STORY GROUND,RunPeriod: RUN PERIOD 1,1.4996845135E-003,1.1517676075E-003,Pass,Pass,3.9683082949E-003,4.8244592899E-003,Pass,Pass
 Warmup Convergence Information,ZONE WAREHOUSE FINE A  - STORY GROUND,RunPeriod: RUN PERIOD 1,3.8542614074E-005,1.2616060556E-004,Pass,Pass,5.0197142933E-003,3.9035421586E-003,Pass,Pass
 Warmup Convergence Information,ZONE WAREHOUSE FINE A END_B - STORY GROUND,RunPeriod: RUN PERIOD 1,3.5281533464E-005,1.2146601645E-004,Pass,Pass,3.1703261678E-003,3.5753445724E-003,Pass,Pass
 Warmup Convergence Information,ZONE WAREHOUSE FINE B  - STORY GROUND,RunPeriod: RUN PERIOD 1,7.9007018473E-003,1.3542640474E-002,Pass,Pass,4.9936572254E-002,0.1638440917,Pass,Pass
 Warmup Convergence Information,ZONE WAREHOUSE FINE B END_B - STORY GROUND,RunPeriod: RUN PERIOD 1,2.6138119385E-008,2.1287539456E-007,Pass,Pass,3.0296329546E-003,3.6127636912E-003,Pass,Pass
 Warmup Convergence Information,ZONE WAREHOUSE FINE C  - STORY GROUND,RunPeriod: RUN PERIOD 1,3.8479596980E-005,1.2615646239E-004,Pass,Pass,3.8879920028E-003,3.7582014966E-003,Pass,Pass
 Warmup Convergence Information,ZONE WAREHOUSE FINE C END_B - STORY GROUND,RunPeriod: RUN PERIOD 1,4.4076646086E-005,1.3887084572E-004,Pass,Pass,2.5479369188E-003,3.4868257210E-003,Pass,Pass
 Warmup Convergence Information,ZONE WAREHOUSE OFFICE A  - STORY GROUND,RunPeriod: RUN PERIOD 1,7.6553088964E-002,0.5470742578,Pass,Pass,4.0938082030E-002,0.2698398003,Pass,Pass
 Warmup Convergence Information,ZONE WAREHOUSE OFFICE B  - STORY GROUND,RunPeriod: RUN PERIOD 1,7.6504969532E-002,0.4654280535,Pass,Pass,2.9608322410E-002,0.1107734899,Pass,Pass
 Warmup Convergence Information,ZONE WAREHOUSE OFFICE C  - STORY GROUND,RunPeriod: RUN PERIOD 1,7.6546659302E-002,0.5486507774,Pass,Pass,3.8146828596E-002,0.2545169939,Pass,Pass
! <Program Control Information:Threads/Parallel Sims>, Threading Supported,Maximum Number of Threads, Env Set Threads (OMP_NUM_THREADS), EP Env Set Threads (EP_OMP_NUM_THREADS), IDF Set Threads, Number of Threads Used (Interior Radiant Exchange), Number Nominal Surfaces, Number Parallel Sims
Program Control:Threads/Parallel Sims, No,1, N/A, N/A, N/A, N/A, N/A, N/A
End of Data
