{
   "completed_at" : "20230601T164913Z",
   "completed_status" : "Success",
   "created_at" : "20230206T223851Z",
   "current_step" : 3,
   "eplusout_err" : "Program Version,EnergyPlus, Version 23.1.0-87ed9199d4, YMD=2023.06.01 10:48,\n   ************* Beginning Zone Sizing Calculations\n   ** Warning ** ProcessScheduleInput: DecodeHHMMField, Invalid \"until\" field value is not a multiple of the minutes for each timestep: 12:59\n   **   ~~~   ** Other errors may result. Occurred in Day Schedule=ZONE OFFICE WHOLEBUILDING - SM OFFICE 2  - STORY GROUND PSZ-AC OCC SCH SATURDAY\n   ** Warning ** ProcessScheduleInput: Schedule:Constant=\"TEMPORARY PIPE INDOOR AMBIENT TEMP 67.3F\", Blank Schedule Type Limits Name input -- will not be validated.\n   ** Warning ** ProcessScheduleInput: Schedule:Constant=\"ALWAYS ON CONTINUOUS\", Blank Schedule Type Limits Name input -- will not be validated.\n   ** Warning ** CheckUsedConstructions: There are 13 nominally unused constructions in input.\n   **   ~~~   ** For explicit details on each unused construction, use Output:Diagnostics,DisplayExtraWarnings;\n   ** Warning ** GetInternalHeatGains: People=\"OFFICE WHOLEBUILDING - SM OFFICE 2 PEOPLE\" has comfort related schedules but no thermal comfort model selected.\n   **   ~~~   ** If schedules are specified for air velocity, clothing insulation, and/or work efficiency but no thermal comfort\n   **   ~~~   ** thermal comfort model is selected, the schedules will be listed as unused schedules in the .err file.\n   **   ~~~   ** To avoid these errors, select a valid thermal comfort model or eliminate these schedules in the PEOPLE input.\n   ** Severe  ** WaterHeater:Mixed = 40GAL ELECTRICITY WATER HEATER - 40KBTU/HR 1.0 THERM EFF 1.0 THERM EFF:  Ambient Temperature Zone not found = \n   ************* Beginning System Sizing Calculations\n   ** Warning ** AirLoopHVAC:UnitarySystem = ZONE OFFICE WHOLEBUILDING - SM OFFICE 2  - STORY GROUND PSZ-AC UNITARY AC\n   **   ~~~   ** Method used to determine the cooling supply air flow rate is not specified when cooling coil is present.\n   ** Warning ** AirLoopHVAC:UnitarySystem = ZONE OFFICE WHOLEBUILDING - SM OFFICE 2  - STORY GROUND PSZ-AC UNITARY AC\n   **   ~~~   ** Method used to determine the heating supply air flow rate is not specified when heating coil is present.\n   ************* Beginning Plant Sizing Calculations\n   ** Warning ** GetOAControllerInputs: Controller:MechanicalVentilation=\"CONTROLLER MECHANICAL VENTILATION 1\"\n   **   ~~~   ** Cannot locate a matching DesignSpecification:ZoneAirDistribution object for Zone=\"ZONE OFFICE WHOLEBUILDING - SM OFFICE 2  - STORY GROUND\".\n   **   ~~~   ** Using default zone air distribution effectiveness of 1.0 for heating and cooling.\n   ** Warning ** Water heater = 40GAL NATURALGAS WATER HEATER - 1KBTU/HR 0.78 THERM EFF:  Recovery Efficiency and Energy Factor could not be calculated during the test for standard ratings\n   **   ~~~   ** Setpoint was never recovered and/or heater never turned on\n   ** Warning ** SizePlantLoop: Calculated Plant Sizing Design Volume Flow Rate=[0.00] is too small. Set to 0.0\n   **   ~~~   ** ..occurs for PlantLoop=MAIN SERVICE WATER LOOP\n   ** Warning ** SizePump: Calculated Pump Nominal Volume Flow Rate=[0.00] is too small. Set to 0.0\n   **   ~~~   ** ..occurs for Pump=MAIN SERVICE WATER LOOP WATER MAINS PRESSURE DRIVEN\n   ** Warning ** Check input. Pump nominal power or motor efficiency is set to 0, for pump=MAIN SERVICE WATER LOOP WATER MAINS PRESSURE DRIVEN\n   ** Warning ** Check input. Pump nominal flow rate is set or calculated = 0, for pump=MAIN SERVICE WATER LOOP WATER MAINS PRESSURE DRIVEN\n   ** Warning ** Output:Meter: invalid Key Name=\"DISTRICTCOOLING:FACILITY\" - not found.\n   ** Warning ** Output:Meter: invalid Key Name=\"DISTRICTHEATING:FACILITY\" - not found.\n   ** Warning ** Output:Meter:MeterFileOnly requested for \"Electricity:Facility\" (TimeStep), already on \"Output:Meter\". Will report to both eplusout.eso and eplusout.mtr\n   ************* Testing Individual Branch Integrity\n   ************* All Branches passed integrity testing\n   ************* Testing Individual Supply Air Path Integrity\n   ************* All Supply Air Paths passed integrity testing\n   ************* Testing Individual Return Air Path Integrity\n   ************* All Return Air Paths passed integrity testing\n   ************* No node connection errors were found.\n   ************* Beginning Simulation\n   ** Warning ** CalcOAController: Minimum OA fraction > Mechanical Ventilation Controller request for Controller:OutdoorAir=ZONE OFFICE WHOLEBUILDING - SM OFFICE 2  - STORY GROUND PSZ-AC OA SYSTEM CONTROLLER, Min OA fraction is used.\n   **   ~~~   ** This may be overriding desired ventilation controls. Check inputs for Minimum Outdoor Air Flow Rate, Minimum Outdoor Air Schedule Name and Controller:MechanicalVentilation\n   **   ~~~   ** Minimum OA fraction = 0.1233, Mech Vent OA fraction = 2.3697E-002\n   **   ~~~   **  Environment=RUN PERIOD 1, at Simulation time=01/01 00:00 - 00:10\n   ** Warning ** In Output:Table:Monthly 'BUILDING ENERGY PERFORMANCE - FUELOILNO1' invalid Variable or Meter Name 'HEATING:FUELOILNO1'\n   ** Warning ** In Output:Table:Monthly 'BUILDING ENERGY PERFORMANCE - FUELOILNO1' invalid Variable or Meter Name 'COOLING:FUELOILNO1'\n   ** Warning ** In Output:Table:Monthly 'BUILDING ENERGY PERFORMANCE - FUELOILNO1' invalid Variable or Meter Name 'INTERIOR LIGHTING:FUELOILNO1'\n   ** Warning ** In Output:Table:Monthly 'BUILDING ENERGY PERFORMANCE - FUELOILNO1' invalid Variable or Meter Name 'EXTERIOR LIGHTING:FUELOILNO1'\n   ** Warning ** In Output:Table:Monthly 'BUILDING ENERGY PERFORMANCE - FUELOILNO1' invalid Variable or Meter Name 'INTERIOR EQUIPMENT:FUELOILNO1'\n   ** Warning ** In Output:Table:Monthly 'BUILDING ENERGY PERFORMANCE - FUELOILNO1' invalid Variable or Meter Name 'EXTERIOR EQUIPMENT:FUELOILNO1'\n   ** Warning ** In Output:Table:Monthly 'BUILDING ENERGY PERFORMANCE - FUELOILNO1' invalid Variable or Meter Name 'FANS:FUELOILNO1'\n   ** Warning ** In Output:Table:Monthly 'BUILDING ENERGY PERFORMANCE - FUELOILNO1' invalid Variable or Meter Name 'PUMPS:FUELOILNO1'\n   ** Warning ** In Output:Table:Monthly 'BUILDING ENERGY PERFORMANCE - FUELOILNO1' invalid Variable or Meter Name 'HEAT REJECTION:FUELOILNO1'\n   ** Warning ** In Output:Table:Monthly 'BUILDING ENERGY PERFORMANCE - FUELOILNO1' invalid Variable or Meter Name 'HUMIDIFICATION:FUELOILNO1'\n   ** Warning ** In Output:Table:Monthly 'BUILDING ENERGY PERFORMANCE - FUELOILNO1' invalid Variable or Meter Name 'HEAT RECOVERY:FUELOILNO1'\n   ** Warning ** In Output:Table:Monthly 'BUILDING ENERGY PERFORMANCE - FUELOILNO1' invalid Variable or Meter Name 'WATER SYSTEMS:FUELOILNO1'\n   ** Warning ** In Output:Table:Monthly 'BUILDING ENERGY PERFORMANCE - FUELOILNO1' invalid Variable or Meter Name 'REFRIGERATION:FUELOILNO1'\n   ** Warning ** In Output:Table:Monthly 'BUILDING ENERGY PERFORMANCE - FUELOILNO1' invalid Variable or Meter Name 'GENERATORS:FUELOILNO1'\n   ** Warning ** In Output:Table:Monthly 'BUILDING ENERGY PERFORMANCE - FUELOILNO2' invalid Variable or Meter Name 'HEATING:FUELOILNO2'\n   ** Warning ** In Output:Table:Monthly 'BUILDING ENERGY PERFORMANCE - FUELOILNO2' invalid Variable or Meter Name 'COOLING:FUELOILNO2'\n   ** Warning ** In Output:Table:Monthly 'BUILDING ENERGY PERFORMANCE - FUELOILNO2' invalid Variable or Meter Name 'INTERIOR LIGHTING:FUELOILNO2'\n   ** Warning ** In Output:Table:Monthly 'BUILDING ENERGY PERFORMANCE - FUELOILNO2' invalid Variable or Meter Name 'EXTERIOR LIGHTING:FUELOILNO2'\n   ** Warning ** In Output:Table:Monthly 'BUILDING ENERGY PERFORMANCE - FUELOILNO2' invalid Variable or Meter Name 'INTERIOR EQUIPMENT:FUELOILNO2'\n   ** Warning ** In Output:Table:Monthly 'BUILDING ENERGY PERFORMANCE - FUELOILNO2' invalid Variable or Meter Name 'EXTERIOR EQUIPMENT:FUELOILNO2'\n   ** Warning ** In Output:Table:Monthly 'BUILDING ENERGY PERFORMANCE - FUELOILNO2' invalid Variable or Meter Name 'FANS:FUELOILNO2'\n   ** Warning ** In Output:Table:Monthly 'BUILDING ENERGY PERFORMANCE - FUELOILNO2' invalid Variable or Meter Name 'PUMPS:FUELOILNO2'\n   ** Warning ** In Output:Table:Monthly 'BUILDING ENERGY PERFORMANCE - FUELOILNO2' invalid Variable or Meter Name 'HEAT REJECTION:FUELOILNO2'\n   ** Warning ** In Output:Table:Monthly 'BUILDING ENERGY PERFORMANCE - FUELOILNO2' invalid Variable or Meter Name 'HUMIDIFICATION:FUELOILNO2'\n   ** Warning ** In Output:Table:Monthly 'BUILDING ENERGY PERFORMANCE - FUELOILNO2' invalid Variable or Meter Name 'HEAT RECOVERY:FUELOILNO2'\n   ** Warning ** In Output:Table:Monthly 'BUILDING ENERGY PERFORMANCE - FUELOILNO2' invalid Variable or Meter Name 'WATER SYSTEMS:FUELOILNO2'\n   ** Warning ** In Output:Table:Monthly 'BUILDING ENERGY PERFORMANCE - FUELOILNO2' invalid Variable or Meter Name 'REFRIGERATION:FUELOILNO2'\n   ** Warning ** In Output:Table:Monthly 'BUILDING ENERGY PERFORMANCE - FUELOILNO2' invalid Variable or Meter Name 'GENERATORS:FUELOILNO2'\n   ** Warning ** In Output:Table:Monthly 'BUILDING ENERGY PERFORMANCE - PROPANEGAS' invalid Variable or Meter Name 'HEATING:PROPANEGAS'\n   ** Warning ** In Output:Table:Monthly 'BUILDING ENERGY PERFORMANCE - PROPANEGAS' invalid Variable or Meter Name 'COOLING:PROPANEGAS'\n   ** Warning ** In Output:Table:Monthly 'BUILDING ENERGY PERFORMANCE - PROPANEGAS' invalid Variable or Meter Name 'INTERIOR LIGHTING:PROPANEGAS'\n   ** Warning ** In Output:Table:Monthly 'BUILDING ENERGY PERFORMANCE - PROPANEGAS' invalid Variable or Meter Name 'EXTERIOR LIGHTING:PROPANEGAS'\n   ** Warning ** In Output:Table:Monthly 'BUILDING ENERGY PERFORMANCE - PROPANEGAS' invalid Variable or Meter Name 'INTERIOR EQUIPMENT:PROPANEGAS'\n   ** Warning ** In Output:Table:Monthly 'BUILDING ENERGY PERFORMANCE - PROPANEGAS' invalid Variable or Meter Name 'EXTERIOR EQUIPMENT:PROPANEGAS'\n   ** Warning ** In Output:Table:Monthly 'BUILDING ENERGY PERFORMANCE - PROPANEGAS' invalid Variable or Meter Name 'FANS:PROPANEGAS'\n   ** Warning ** In Output:Table:Monthly 'BUILDING ENERGY PERFORMANCE - PROPANEGAS' invalid Variable or Meter Name 'PUMPS:PROPANEGAS'\n   ** Warning ** In Output:Table:Monthly 'BUILDING ENERGY PERFORMANCE - PROPANEGAS' invalid Variable or Meter Name 'HEAT REJECTION:PROPANEGAS'\n   ** Warning ** In Output:Table:Monthly 'BUILDING ENERGY PERFORMANCE - PROPANEGAS' invalid Variable or Meter Name 'HUMIDIFICATION:PROPANEGAS'\n   ** Warning ** In Output:Table:Monthly 'BUILDING ENERGY PERFORMANCE - PROPANEGAS' invalid Variable or Meter Name 'HEAT RECOVERY:PROPANEGAS'\n   ** Warning ** In Output:Table:Monthly 'BUILDING ENERGY PERFORMANCE - PROPANEGAS' invalid Variable or Meter Name 'WATER SYSTEMS:PROPANEGAS'\n   ** Warning ** In Output:Table:Monthly 'BUILDING ENERGY PERFORMANCE - PROPANEGAS' invalid Variable or Meter Name 'REFRIGERATION:PROPANEGAS'\n   ** Warning ** In Output:Table:Monthly 'BUILDING ENERGY PERFORMANCE - PROPANEGAS' invalid Variable or Meter Name 'GENERATORS:PROPANEGAS'\n   ** Warning ** In Output:Table:Monthly 'BUILDING ENERGY PERFORMANCE - COAL' invalid Variable or Meter Name 'HEATING:COAL'\n   ** Warning ** In Output:Table:Monthly 'BUILDING ENERGY PERFORMANCE - COAL' invalid Variable or Meter Name 'COOLING:COAL'\n   ** Warning ** In Output:Table:Monthly 'BUILDING ENERGY PERFORMANCE - COAL' invalid Variable or Meter Name 'INTERIOR LIGHTING:COAL'\n   ** Warning ** In Output:Table:Monthly 'BUILDING ENERGY PERFORMANCE - COAL' invalid Variable or Meter Name 'EXTERIOR LIGHTING:COAL'\n   ** Warning ** In Output:Table:Monthly 'BUILDING ENERGY PERFORMANCE - COAL' invalid Variable or Meter Name 'INTERIOR EQUIPMENT:COAL'\n   ** Warning ** In Output:Table:Monthly 'BUILDING ENERGY PERFORMANCE - COAL' invalid Variable or Meter Name 'EXTERIOR EQUIPMENT:COAL'\n   ** Warning ** In Output:Table:Monthly 'BUILDING ENERGY PERFORMANCE - COAL' invalid Variable or Meter Name 'FANS:COAL'\n   ** Warning ** In Output:Table:Monthly 'BUILDING ENERGY PERFORMANCE - COAL' invalid Variable or Meter Name 'PUMPS:COAL'\n   ** Warning ** In Output:Table:Monthly 'BUILDING ENERGY PERFORMANCE - COAL' invalid Variable or Meter Name 'HEAT REJECTION:COAL'\n   ** Warning ** In Output:Table:Monthly 'BUILDING ENERGY PERFORMANCE - COAL' invalid Variable or Meter Name 'HUMIDIFICATION:COAL'\n   ** Warning ** In Output:Table:Monthly 'BUILDING ENERGY PERFORMANCE - COAL' invalid Variable or Meter Name 'HEAT RECOVERY:COAL'\n   ** Warning ** In Output:Table:Monthly 'BUILDING ENERGY PERFORMANCE - COAL' invalid Variable or Meter Name 'WATER SYSTEMS:COAL'\n   ** Warning ** In Output:Table:Monthly 'BUILDING ENERGY PERFORMANCE - COAL' invalid Variable or Meter Name 'REFRIGERATION:COAL'\n   ** Warning ** In Output:Table:Monthly 'BUILDING ENERGY PERFORMANCE - COAL' invalid Variable or Meter Name 'GENERATORS:COAL'\n   ** Warning ** In Output:Table:Monthly 'BUILDING ENERGY PERFORMANCE - DIESEL' invalid Variable or Meter Name 'HEATING:DIESEL'\n   ** Warning ** In Output:Table:Monthly 'BUILDING ENERGY PERFORMANCE - DIESEL' invalid Variable or Meter Name 'COOLING:DIESEL'\n   ** Warning ** In Output:Table:Monthly 'BUILDING ENERGY PERFORMANCE - DIESEL' invalid Variable or Meter Name 'INTERIOR LIGHTING:DIESEL'\n   ** Warning ** In Output:Table:Monthly 'BUILDING ENERGY PERFORMANCE - DIESEL' invalid Variable or Meter Name 'EXTERIOR LIGHTING:DIESEL'\n   ** Warning ** In Output:Table:Monthly 'BUILDING ENERGY PERFORMANCE - DIESEL' invalid Variable or Meter Name 'INTERIOR EQUIPMENT:DIESEL'\n   ** Warning ** In Output:Table:Monthly 'BUILDING ENERGY PERFORMANCE - DIESEL' invalid Variable or Meter Name 'EXTERIOR EQUIPMENT:DIESEL'\n   ** Warning ** In Output:Table:Monthly 'BUILDING ENERGY PERFORMANCE - DIESEL' invalid Variable or Meter Name 'FANS:DIESEL'\n   ** Warning ** In Output:Table:Monthly 'BUILDING ENERGY PERFORMANCE - DIESEL' invalid Variable or Meter Name 'PUMPS:DIESEL'\n   ** Warning ** In Output:Table:Monthly 'BUILDING ENERGY PERFORMANCE - DIESEL' invalid Variable or Meter Name 'HEAT REJECTION:DIESEL'\n   ** Warning ** In Output:Table:Monthly 'BUILDING ENERGY PERFORMANCE - DIESEL' invalid Variable or Meter Name 'HUMIDIFICATION:DIESEL'\n   ** Warning ** In Output:Table:Monthly 'BUILDING ENERGY PERFORMANCE - DIESEL' invalid Variable or Meter Name 'HEAT RECOVERY:DIESEL'\n   ** Warning ** In Output:Table:Monthly 'BUILDING ENERGY PERFORMANCE - DIESEL' invalid Variable or Meter Name 'WATER SYSTEMS:DIESEL'\n   ** Warning ** In Output:Table:Monthly 'BUILDING ENERGY PERFORMANCE - DIESEL' invalid Variable or Meter Name 'REFRIGERATION:DIESEL'\n   ** Warning ** In Output:Table:Monthly 'BUILDING ENERGY PERFORMANCE - DIESEL' invalid Variable or Meter Name 'GENERATORS:DIESEL'\n   ** Warning ** In Output:Table:Monthly 'BUILDING ENERGY PERFORMANCE - GASOLINE' invalid Variable or Meter Name 'HEATING:GASOLINE'\n   ** Warning ** In Output:Table:Monthly 'BUILDING ENERGY PERFORMANCE - GASOLINE' invalid Variable or Meter Name 'COOLING:GASOLINE'\n   ** Warning ** In Output:Table:Monthly 'BUILDING ENERGY PERFORMANCE - GASOLINE' invalid Variable or Meter Name 'INTERIOR LIGHTING:GASOLINE'\n   ** Warning ** In Output:Table:Monthly 'BUILDING ENERGY PERFORMANCE - GASOLINE' invalid Variable or Meter Name 'EXTERIOR LIGHTING:GASOLINE'\n   ** Warning ** In Output:Table:Monthly 'BUILDING ENERGY PERFORMANCE - GASOLINE' invalid Variable or Meter Name 'INTERIOR EQUIPMENT:GASOLINE'\n   ** Warning ** In Output:Table:Monthly 'BUILDING ENERGY PERFORMANCE - GASOLINE' invalid Variable or Meter Name 'EXTERIOR EQUIPMENT:GASOLINE'\n   ** Warning ** In Output:Table:Monthly 'BUILDING ENERGY PERFORMANCE - GASOLINE' invalid Variable or Meter Name 'FANS:GASOLINE'\n   ** Warning ** In Output:Table:Monthly 'BUILDING ENERGY PERFORMANCE - GASOLINE' invalid Variable or Meter Name 'PUMPS:GASOLINE'\n   ** Warning ** In Output:Table:Monthly 'BUILDING ENERGY PERFORMANCE - GASOLINE' invalid Variable or Meter Name 'HEAT REJECTION:GASOLINE'\n   ** Warning ** In Output:Table:Monthly 'BUILDING ENERGY PERFORMANCE - GASOLINE' invalid Variable or Meter Name 'HUMIDIFICATION:GASOLINE'\n   ** Warning ** In Output:Table:Monthly 'BUILDING ENERGY PERFORMANCE - GASOLINE' invalid Variable or Meter Name 'HEAT RECOVERY:GASOLINE'\n   ** Warning ** In Output:Table:Monthly 'BUILDING ENERGY PERFORMANCE - GASOLINE' invalid Variable or Meter Name 'WATER SYSTEMS:GASOLINE'\n   ** Warning ** In Output:Table:Monthly 'BUILDING ENERGY PERFORMANCE - GASOLINE' invalid Variable or Meter Name 'REFRIGERATION:GASOLINE'\n   ** Warning ** In Output:Table:Monthly 'BUILDING ENERGY PERFORMANCE - GASOLINE' invalid Variable or Meter Name 'GENERATORS:GASOLINE'\n   ** Warning ** In Output:Table:Monthly 'BUILDING ENERGY PERFORMANCE - OTHERFUEL1' invalid Variable or Meter Name 'HEATING:OTHERFUEL1'\n   ** Warning ** In Output:Table:Monthly 'BUILDING ENERGY PERFORMANCE - OTHERFUEL1' invalid Variable or Meter Name 'COOLING:OTHERFUEL1'\n   ** Warning ** In Output:Table:Monthly 'BUILDING ENERGY PERFORMANCE - OTHERFUEL1' invalid Variable or Meter Name 'INTERIOR LIGHTING:OTHERFUEL1'\n   ** Warning ** In Output:Table:Monthly 'BUILDING ENERGY PERFORMANCE - OTHERFUEL1' invalid Variable or Meter Name 'EXTERIOR LIGHTING:OTHERFUEL1'\n   ** Warning ** In Output:Table:Monthly 'BUILDING ENERGY PERFORMANCE - OTHERFUEL1' invalid Variable or Meter Name 'INTERIOR EQUIPMENT:OTHERFUEL1'\n   ** Warning ** In Output:Table:Monthly 'BUILDING ENERGY PERFORMANCE - OTHERFUEL1' invalid Variable or Meter Name 'EXTERIOR EQUIPMENT:OTHERFUEL1'\n   ** Warning ** In Output:Table:Monthly 'BUILDING ENERGY PERFORMANCE - OTHERFUEL1' invalid Variable or Meter Name 'FANS:OTHERFUEL1'\n   ** Warning ** In Output:Table:Monthly 'BUILDING ENERGY PERFORMANCE - OTHERFUEL1' invalid Variable or Meter Name 'PUMPS:OTHERFUEL1'\n   ** Warning ** In Output:Table:Monthly 'BUILDING ENERGY PERFORMANCE - OTHERFUEL1' invalid Variable or Meter Name 'HEAT REJECTION:OTHERFUEL1'\n   ** Warning ** In Output:Table:Monthly 'BUILDING ENERGY PERFORMANCE - OTHERFUEL1' invalid Variable or Meter Name 'HUMIDIFICATION:OTHERFUEL1'\n   ** Warning ** In Output:Table:Monthly 'BUILDING ENERGY PERFORMANCE - OTHERFUEL1' invalid Variable or Meter Name 'HEAT RECOVERY:OTHERFUEL1'\n   ** Warning ** In Output:Table:Monthly 'BUILDING ENERGY PERFORMANCE - OTHERFUEL1' invalid Variable or Meter Name 'WATER SYSTEMS:OTHERFUEL1'\n   ** Warning ** In Output:Table:Monthly 'BUILDING ENERGY PERFORMANCE - OTHERFUEL1' invalid Variable or Meter Name 'REFRIGERATION:OTHERFUEL1'\n   ** Warning ** In Output:Table:Monthly 'BUILDING ENERGY PERFORMANCE - OTHERFUEL1' invalid Variable or Meter Name 'GENERATORS:OTHERFUEL1'\n   ** Warning ** In Output:Table:Monthly 'BUILDING ENERGY PERFORMANCE - OTHERFUEL2' invalid Variable or Meter Name 'HEATING:OTHERFUEL2'\n   ** Warning ** In Output:Table:Monthly 'BUILDING ENERGY PERFORMANCE - OTHERFUEL2' invalid Variable or Meter Name 'COOLING:OTHERFUEL2'\n   ** Warning ** In Output:Table:Monthly 'BUILDING ENERGY PERFORMANCE - OTHERFUEL2' invalid Variable or Meter Name 'INTERIOR LIGHTING:OTHERFUEL2'\n   ** Warning ** In Output:Table:Monthly 'BUILDING ENERGY PERFORMANCE - OTHERFUEL2' invalid Variable or Meter Name 'EXTERIOR LIGHTING:OTHERFUEL2'\n   ** Warning ** In Output:Table:Monthly 'BUILDING ENERGY PERFORMANCE - OTHERFUEL2' invalid Variable or Meter Name 'INTERIOR EQUIPMENT:OTHERFUEL2'\n   ** Warning ** In Output:Table:Monthly 'BUILDING ENERGY PERFORMANCE - OTHERFUEL2' invalid Variable or Meter Name 'EXTERIOR EQUIPMENT:OTHERFUEL2'\n   ** Warning ** In Output:Table:Monthly 'BUILDING ENERGY PERFORMANCE - OTHERFUEL2' invalid Variable or Meter Name 'FANS:OTHERFUEL2'\n   ** Warning ** In Output:Table:Monthly 'BUILDING ENERGY PERFORMANCE - OTHERFUEL2' invalid Variable or Meter Name 'PUMPS:OTHERFUEL2'\n   ** Warning ** In Output:Table:Monthly 'BUILDING ENERGY PERFORMANCE - OTHERFUEL2' invalid Variable or Meter Name 'HEAT REJECTION:OTHERFUEL2'\n   ** Warning ** In Output:Table:Monthly 'BUILDING ENERGY PERFORMANCE - OTHERFUEL2' invalid Variable or Meter Name 'HUMIDIFICATION:OTHERFUEL2'\n   ** Warning ** In Output:Table:Monthly 'BUILDING ENERGY PERFORMANCE - OTHERFUEL2' invalid Variable or Meter Name 'HEAT RECOVERY:OTHERFUEL2'\n   ** Warning ** In Output:Table:Monthly 'BUILDING ENERGY PERFORMANCE - OTHERFUEL2' invalid Variable or Meter Name 'WATER SYSTEMS:OTHERFUEL2'\n   ** Warning ** In Output:Table:Monthly 'BUILDING ENERGY PERFORMANCE - OTHERFUEL2' invalid Variable or Meter Name 'REFRIGERATION:OTHERFUEL2'\n   ** Warning ** In Output:Table:Monthly 'BUILDING ENERGY PERFORMANCE - OTHERFUEL2' invalid Variable or Meter Name 'GENERATORS:OTHERFUEL2'\n   ** Warning ** In Output:Table:Monthly 'BUILDING ENERGY PERFORMANCE - ELECTRICITY' invalid Variable or Meter Name 'EXTERIOREQUIPMENT:ELECTRICITY'\n   ** Warning ** In Output:Table:Monthly 'BUILDING ENERGY PERFORMANCE - ELECTRICITY' invalid Variable or Meter Name 'HEATREJECTION:ELECTRICITY'\n   ** Warning ** In Output:Table:Monthly 'BUILDING ENERGY PERFORMANCE - ELECTRICITY' invalid Variable or Meter Name 'HUMIDIFIER:ELECTRICITY'\n   ** Warning ** In Output:Table:Monthly 'BUILDING ENERGY PERFORMANCE - ELECTRICITY' invalid Variable or Meter Name 'HEATRECOVERY:ELECTRICITY'\n   ** Warning ** In Output:Table:Monthly 'BUILDING ENERGY PERFORMANCE - ELECTRICITY' invalid Variable or Meter Name 'COGENERATION:ELECTRICITY'\n   ** Warning ** In Output:Table:Monthly 'BUILDING ENERGY PERFORMANCE - ELECTRICITY' invalid Variable or Meter Name 'REFRIGERATION:ELECTRICITY'\n   ** Warning ** In Output:Table:Monthly 'BUILDING ENERGY PERFORMANCE - NATURAL GAS' invalid Variable or Meter Name 'INTERIOREQUIPMENT:NATURALGAS'\n   ** Warning ** In Output:Table:Monthly 'BUILDING ENERGY PERFORMANCE - NATURAL GAS' invalid Variable or Meter Name 'EXTERIOREQUIPMENT:NATURALGAS'\n   ** Warning ** In Output:Table:Monthly 'BUILDING ENERGY PERFORMANCE - NATURAL GAS' invalid Variable or Meter Name 'COOLING:NATURALGAS'\n   ** Warning ** In Output:Table:Monthly 'BUILDING ENERGY PERFORMANCE - NATURAL GAS' invalid Variable or Meter Name 'COGENERATION:NATURALGAS'\n   ** Warning ** In Output:Table:Monthly 'BUILDING ENERGY PERFORMANCE - DISTRICT HEATING' invalid Variable or Meter Name 'INTERIORLIGHTS:DISTRICTHEATING'\n   ** Warning ** In Output:Table:Monthly 'BUILDING ENERGY PERFORMANCE - DISTRICT HEATING' invalid Variable or Meter Name 'EXTERIORLIGHTS:DISTRICTHEATING'\n   ** Warning ** In Output:Table:Monthly 'BUILDING ENERGY PERFORMANCE - DISTRICT HEATING' invalid Variable or Meter Name 'INTERIOREQUIPMENT:DISTRICTHEATING'\n   ** Warning ** In Output:Table:Monthly 'BUILDING ENERGY PERFORMANCE - DISTRICT HEATING' invalid Variable or Meter Name 'EXTERIOREQUIPMENT:DISTRICTHEATING'\n   ** Warning ** In Output:Table:Monthly 'BUILDING ENERGY PERFORMANCE - DISTRICT HEATING' invalid Variable or Meter Name 'FANS:DISTRICTHEATING'\n   ** Warning ** In Output:Table:Monthly 'BUILDING ENERGY PERFORMANCE - DISTRICT HEATING' invalid Variable or Meter Name 'PUMPS:DISTRICTHEATING'\n   ** Warning ** In Output:Table:Monthly 'BUILDING ENERGY PERFORMANCE - DISTRICT HEATING' invalid Variable or Meter Name 'HEATING:DISTRICTHEATING'\n   ** Warning ** In Output:Table:Monthly 'BUILDING ENERGY PERFORMANCE - DISTRICT HEATING' invalid Variable or Meter Name 'COOLING:DISTRICTHEATING'\n   ** Warning ** In Output:Table:Monthly 'BUILDING ENERGY PERFORMANCE - DISTRICT HEATING' invalid Variable or Meter Name 'HEATREJECTION:DISTRICTHEATING'\n   ** Warning ** In Output:Table:Monthly 'BUILDING ENERGY PERFORMANCE - DISTRICT HEATING' invalid Variable or Meter Name 'HUMIDIFIER:DISTRICTHEATING'\n   ** Warning ** In Output:Table:Monthly 'BUILDING ENERGY PERFORMANCE - DISTRICT HEATING' invalid Variable or Meter Name 'HEATRECOVERY:DISTRICTHEATING'\n   ** Warning ** In Output:Table:Monthly 'BUILDING ENERGY PERFORMANCE - DISTRICT HEATING' invalid Variable or Meter Name 'WATERSYSTEMS:DISTRICTHEATING'\n   ** Warning ** In Output:Table:Monthly 'BUILDING ENERGY PERFORMANCE - DISTRICT HEATING' invalid Variable or Meter Name 'COGENERATION:DISTRICTHEATING'\n   ** Warning ** In Output:Table:Monthly 'BUILDING ENERGY PERFORMANCE - DISTRICT COOLING' invalid Variable or Meter Name 'INTERIORLIGHTS:DISTRICTCOOLING'\n   ** Warning ** In Output:Table:Monthly 'BUILDING ENERGY PERFORMANCE - DISTRICT COOLING' invalid Variable or Meter Name 'EXTERIORLIGHTS:DISTRICTCOOLING'\n   ** Warning ** In Output:Table:Monthly 'BUILDING ENERGY PERFORMANCE - DISTRICT COOLING' invalid Variable or Meter Name 'INTERIOREQUIPMENT:DISTRICTCOOLING'\n   ** Warning ** In Output:Table:Monthly 'BUILDING ENERGY PERFORMANCE - DISTRICT COOLING' invalid Variable or Meter Name 'EXTERIOREQUIPMENT:DISTRICTCOOLING'\n   ** Warning ** In Output:Table:Monthly 'BUILDING ENERGY PERFORMANCE - DISTRICT COOLING' invalid Variable or Meter Name 'FANS:DISTRICTCOOLING'\n   ** Warning ** In Output:Table:Monthly 'BUILDING ENERGY PERFORMANCE - DISTRICT COOLING' invalid Variable or Meter Name 'PUMPS:DISTRICTCOOLING'\n   ** Warning ** In Output:Table:Monthly 'BUILDING ENERGY PERFORMANCE - DISTRICT COOLING' invalid Variable or Meter Name 'HEATING:DISTRICTCOOLING'\n   ** Warning ** In Output:Table:Monthly 'BUILDING ENERGY PERFORMANCE - DISTRICT COOLING' invalid Variable or Meter Name 'COOLING:DISTRICTCOOLING'\n   ** Warning ** In Output:Table:Monthly 'BUILDING ENERGY PERFORMANCE - DISTRICT COOLING' invalid Variable or Meter Name 'HEATREJECTION:DISTRICTCOOLING'\n   ** Warning ** In Output:Table:Monthly 'BUILDING ENERGY PERFORMANCE - DISTRICT COOLING' invalid Variable or Meter Name 'HUMIDIFIER:DISTRICTCOOLING'\n   ** Warning ** In Output:Table:Monthly 'BUILDING ENERGY PERFORMANCE - DISTRICT COOLING' invalid Variable or Meter Name 'HEATRECOVERY:DISTRICTCOOLING'\n   ** Warning ** In Output:Table:Monthly 'BUILDING ENERGY PERFORMANCE - DISTRICT COOLING' invalid Variable or Meter Name 'WATERSYSTEMS:DISTRICTCOOLING'\n   ** Warning ** In Output:Table:Monthly 'BUILDING ENERGY PERFORMANCE - DISTRICT COOLING' invalid Variable or Meter Name 'COGENERATION:DISTRICTCOOLING'\n   ** Warning ** In Output:Table:Monthly 'BUILDING ENERGY PERFORMANCE - ELECTRICITY PEAK DEMAND' invalid Variable or Meter Name 'EXTERIOREQUIPMENT:ELECTRICITY'\n   ** Warning ** In Output:Table:Monthly 'BUILDING ENERGY PERFORMANCE - ELECTRICITY PEAK DEMAND' invalid Variable or Meter Name 'HEATREJECTION:ELECTRICITY'\n   ** Warning ** In Output:Table:Monthly 'BUILDING ENERGY PERFORMANCE - ELECTRICITY PEAK DEMAND' invalid Variable or Meter Name 'HUMIDIFIER:ELECTRICITY'\n   ** Warning ** In Output:Table:Monthly 'BUILDING ENERGY PERFORMANCE - ELECTRICITY PEAK DEMAND' invalid Variable or Meter Name 'HEATRECOVERY:ELECTRICITY'\n   ** Warning ** In Output:Table:Monthly 'BUILDING ENERGY PERFORMANCE - ELECTRICITY PEAK DEMAND' invalid Variable or Meter Name 'COGENERATION:ELECTRICITY'\n   ** Warning ** In Output:Table:Monthly 'BUILDING ENERGY PERFORMANCE - NATURAL GAS PEAK DEMAND' invalid Variable or Meter Name 'INTERIOREQUIPMENT:NATURALGAS'\n   ** Warning ** In Output:Table:Monthly 'BUILDING ENERGY PERFORMANCE - NATURAL GAS PEAK DEMAND' invalid Variable or Meter Name 'EXTERIOREQUIPMENT:NATURALGAS'\n   ** Warning ** In Output:Table:Monthly 'BUILDING ENERGY PERFORMANCE - NATURAL GAS PEAK DEMAND' invalid Variable or Meter Name 'COOLING:NATURALGAS'\n   ** Warning ** In Output:Table:Monthly 'BUILDING ENERGY PERFORMANCE - NATURAL GAS PEAK DEMAND' invalid Variable or Meter Name 'COGENERATION:NATURALGAS'\n   ** Warning ** In Output:Table:Monthly 'BUILDING ENERGY PERFORMANCE - DISTRICT HEATING PEAK DEMAND' invalid Variable or Meter Name 'DISTRICTHEATING:FACILITY'\n   ** Warning ** In Output:Table:Monthly 'BUILDING ENERGY PERFORMANCE - DISTRICT HEATING PEAK DEMAND' invalid Variable or Meter Name 'INTERIORLIGHTS:DISTRICTHEATING'\n   ** Warning ** In Output:Table:Monthly 'BUILDING ENERGY PERFORMANCE - DISTRICT HEATING PEAK DEMAND' invalid Variable or Meter Name 'EXTERIORLIGHTS:DISTRICTHEATING'\n   ** Warning ** In Output:Table:Monthly 'BUILDING ENERGY PERFORMANCE - DISTRICT HEATING PEAK DEMAND' invalid Variable or Meter Name 'INTERIOREQUIPMENT:DISTRICTHEATING'\n   ** Warning ** In Output:Table:Monthly 'BUILDING ENERGY PERFORMANCE - DISTRICT HEATING PEAK DEMAND' invalid Variable or Meter Name 'EXTERIOREQUIPMENT:DISTRICTHEATING'\n   ** Warning ** In Output:Table:Monthly 'BUILDING ENERGY PERFORMANCE - DISTRICT HEATING PEAK DEMAND' invalid Variable or Meter Name 'FANS:DISTRICTHEATING'\n   ** Warning ** In Output:Table:Monthly 'BUILDING ENERGY PERFORMANCE - DISTRICT HEATING PEAK DEMAND' invalid Variable or Meter Name 'PUMPS:DISTRICTHEATING'\n   ** Warning ** In Output:Table:Monthly 'BUILDING ENERGY PERFORMANCE - DISTRICT HEATING PEAK DEMAND' invalid Variable or Meter Name 'HEATING:DISTRICTHEATING'\n   ** Warning ** In Output:Table:Monthly 'BUILDING ENERGY PERFORMANCE - DISTRICT HEATING PEAK DEMAND' invalid Variable or Meter Name 'COOLING:DISTRICTHEATING'\n   ** Warning ** In Output:Table:Monthly 'BUILDING ENERGY PERFORMANCE - DISTRICT HEATING PEAK DEMAND' invalid Variable or Meter Name 'HEATREJECTION:DISTRICTHEATING'\n   ** Warning ** In Output:Table:Monthly 'BUILDING ENERGY PERFORMANCE - DISTRICT HEATING PEAK DEMAND' invalid Variable or Meter Name 'HUMIDIFIER:DISTRICTHEATING'\n   ** Warning ** In Output:Table:Monthly 'BUILDING ENERGY PERFORMANCE - DISTRICT HEATING PEAK DEMAND' invalid Variable or Meter Name 'HEATRECOVERY:DISTRICTHEATING'\n   ** Warning ** In Output:Table:Monthly 'BUILDING ENERGY PERFORMANCE - DISTRICT HEATING PEAK DEMAND' invalid Variable or Meter Name 'WATERSYSTEMS:DISTRICTHEATING'\n   ** Warning ** In Output:Table:Monthly 'BUILDING ENERGY PERFORMANCE - DISTRICT HEATING PEAK DEMAND' invalid Variable or Meter Name 'COGENERATION:DISTRICTHEATING'\n   ** Warning ** In Output:Table:Monthly 'BUILDING ENERGY PERFORMANCE - DISTRICT COOLING PEAK DEMAND' invalid Variable or Meter Name 'DISTRICTCOOLING:FACILITY'\n   ** Warning ** In Output:Table:Monthly 'BUILDING ENERGY PERFORMANCE - DISTRICT COOLING PEAK DEMAND' invalid Variable or Meter Name 'INTERIORLIGHTS:DISTRICTCOOLING'\n   ** Warning ** In Output:Table:Monthly 'BUILDING ENERGY PERFORMANCE - DISTRICT COOLING PEAK DEMAND' invalid Variable or Meter Name 'EXTERIORLIGHTS:DISTRICTCOOLING'\n   ** Warning ** In Output:Table:Monthly 'BUILDING ENERGY PERFORMANCE - DISTRICT COOLING PEAK DEMAND' invalid Variable or Meter Name 'INTERIOREQUIPMENT:DISTRICTCOOLING'\n   ** Warning ** In Output:Table:Monthly 'BUILDING ENERGY PERFORMANCE - DISTRICT COOLING PEAK DEMAND' invalid Variable or Meter Name 'EXTERIOREQUIPMENT:DISTRICTCOOLING'\n   ** Warning ** In Output:Table:Monthly 'BUILDING ENERGY PERFORMANCE - DISTRICT COOLING PEAK DEMAND' invalid Variable or Meter Name 'FANS:DISTRICTCOOLING'\n   ** Warning ** In Output:Table:Monthly 'BUILDING ENERGY PERFORMANCE - DISTRICT COOLING PEAK DEMAND' invalid Variable or Meter Name 'PUMPS:DISTRICTCOOLING'\n   ** Warning ** In Output:Table:Monthly 'BUILDING ENERGY PERFORMANCE - DISTRICT COOLING PEAK DEMAND' invalid Variable or Meter Name 'HEATING:DISTRICTCOOLING'\n   ** Warning ** In Output:Table:Monthly 'BUILDING ENERGY PERFORMANCE - DISTRICT COOLING PEAK DEMAND' invalid Variable or Meter Name 'COOLING:DISTRICTCOOLING'\n   ** Warning ** In Output:Table:Monthly 'BUILDING ENERGY PERFORMANCE - DISTRICT COOLING PEAK DEMAND' invalid Variable or Meter Name 'HEATREJECTION:DISTRICTCOOLING'\n   ** Warning ** In Output:Table:Monthly 'BUILDING ENERGY PERFORMANCE - DISTRICT COOLING PEAK DEMAND' invalid Variable or Meter Name 'HUMIDIFIER:DISTRICTCOOLING'\n   ** Warning ** In Output:Table:Monthly 'BUILDING ENERGY PERFORMANCE - DISTRICT COOLING PEAK DEMAND' invalid Variable or Meter Name 'HEATRECOVERY:DISTRICTCOOLING'\n   ** Warning ** In Output:Table:Monthly 'BUILDING ENERGY PERFORMANCE - DISTRICT COOLING PEAK DEMAND' invalid Variable or Meter Name 'WATERSYSTEMS:DISTRICTCOOLING'\n   ** Warning ** In Output:Table:Monthly 'BUILDING ENERGY PERFORMANCE - DISTRICT COOLING PEAK DEMAND' invalid Variable or Meter Name 'COGENERATION:DISTRICTCOOLING'\n   ** Warning ** Processing Monthly Tabular Reports: Variable names not valid for this simulation\n   **   ~~~   ** ...use Output:Diagnostics,DisplayExtraWarnings; to show more details on individual variables.\n   ** Warning ** CalcEquipmentFlowRates: \"OFFICE WHOLEBUILDING - SM OFFICE 2 - DOE REF 1980-2004 SERVICE WATER USE 0.01GPM AT 140F\" - Target water temperature is greater than the hot water temperature by (40.40 C)\n   **   ~~~   **  Environment=RUN PERIOD 1, at Simulation time=01/02 00:00 - 00:10\n   **   ~~~   ** ...target water temperature     = 60.00 C\n   **   ~~~   ** ...hot water temperature        = 19.60 C\n   **   ~~~   ** ...Target water temperature should be less than or equal to the hot water temperature. Verify temperature setpoints and schedules.\n   ** Warning ** The resource referenced by LifeCycleCost:UsePriceEscalation= \"U.S. AVG  COMMERCIAL-ELECTRICITY\" has no energy cost. \n   **   ~~~   ** ... It is likely that the wrong resource is used. The resource should match the meter used in Utility:Tariff.\n   ** Warning ** The resource referenced by LifeCycleCost:UsePriceEscalation= \"U.S. AVG  COMMERCIAL-DISTILLATE OIL\" has no energy cost. \n   **   ~~~   ** ... It is likely that the wrong resource is used. The resource should match the meter used in Utility:Tariff.\n   ** Warning ** The resource referenced by LifeCycleCost:UsePriceEscalation= \"U.S. AVG  COMMERCIAL-RESIDUAL OIL\" has no energy cost. \n   **   ~~~   ** ... It is likely that the wrong resource is used. The resource should match the meter used in Utility:Tariff.\n   ** Warning ** The resource referenced by LifeCycleCost:UsePriceEscalation= \"U.S. AVG  COMMERCIAL-NATURAL GAS\" has no energy cost. \n   **   ~~~   ** ... It is likely that the wrong resource is used. The resource should match the meter used in Utility:Tariff.\n   ** Warning ** The resource referenced by LifeCycleCost:UsePriceEscalation= \"U.S. AVG  COMMERCIAL-COAL\" has no energy cost. \n   **   ~~~   ** ... It is likely that the wrong resource is used. The resource should match the meter used in Utility:Tariff.\n   ************* Simulation Error Summary *************\n   ************* There are 6 unused schedules in input.\n   ************* There are 6 unused week schedules in input.\n   ************* There are 15 unused day schedules in input.\n   ************* Use Output:Diagnostics,DisplayUnusedSchedules; to see them.\n   *************\n   ************* ===== Recurring Error Summary =====\n   ************* The following recurring error messages occurred.\n   *************\n   *************  ** Warning ** Controller:OutdoorAir=\"ZONE OFFICE WHOLEBUILDING - SM OFFICE 2  - STORY GROUND PSZ-AC OA SYSTEM CONTROLLER\": Min OA fraction > Mechanical ventilation OA fraction, continues...\n   *************  **   ~~~   **   This error occurred 200945 total times;\n   *************  **   ~~~   **   during Warmup 0 times;\n   *************  **   ~~~   **   during Sizing 0 times.\n   *************  **   ~~~   **   Max=0.123274  Min=0.123274\n   *************\n   *************  ** Warning ** \"OFFICE WHOLEBUILDING - SM OFFICE 2 - DOE REF 1980-2004 SERVICE WATER USE 0.01GPM AT 140F\" - Target water temperature should be less than or equal to the hot water temperature error continues...\n   *************  **   ~~~   **   This error occurred 358959 total times;\n   *************  **   ~~~   **   during Warmup 0 times;\n   *************  **   ~~~   **   during Sizing 0 times.\n   *************  **   ~~~   **   Max=40.400000  Min=38.057311\n   *************\n   *************\n   ************* ===== Final Error Summary =====\n   ************* The following error categories occurred.  Consider correcting or noting.\n   ************* Nominally Unused Constructions\n   ************* ..The nominally unused constructions warning is provided to alert you to potential conditions that can cause\n   ************* ..extra time during simulation. Each construction is calculated by the algorithm indicated in the HeatBalanceAlgorithm\n   ************* ..object. You may remove the constructions indicated (when you use the DisplayExtraWarnings option).\n   *************\n   ************* EnergyPlus Warmup Error Summary. During Warmup: 0 Warning; 0 Severe Errors.\n   ************* EnergyPlus Sizing Error Summary. During Sizing: 7 Warning; 1 Severe Errors.\n   ************* EnergyPlus Completed Successfully-- 560113 Warning; 1 Severe Errors; Elapsed Time=00hr 00min  8.73sec\n",
   "file_paths" : 
   [
      "/private/var/folders/cj/vhw1_9g1151dh76sjlgdyq19k7f3h5/T/osmodel-1685638045-3/resources/generated_files",
      "./files",
      "./weather",
      "../../files",
      "../../weather",
      "./"
   ],
   "hash" : "0D710AAB",
   "seed_file" : "../R2 copy.osm",
   "started_at" : "20230601T164841Z",
   "steps" : 
   [
      {
         "arguments" : 
         {
            "bldg_type_a" : "SmallOffice",
            "bottom_story_ground_exposed_floor" : true,
            "climate_zone" : "ASHRAE 169-2013-8A",
            "floor_height" : 10,
            "ns_to_ew_ratio" : 1.5,
            "num_stories_above_grade" : 1,
            "num_stories_below_grade" : 0,
            "single_floor_area" : 0,
            "template" : "DOE Ref 1980-2004",
            "total_bldg_floor_area" : 1628,
            "wwr" : 0
         },
         "description" : "Creates one or more rectangular building elements based on space type ratios of selected mix of building types, along with user arguments that describe the desired geometry characteristics.",
         "measure_dir_name" : "create_bar_from_building_type_ratios",
         "modeler_description" : "The building floor area can be described as a footprint size or as a total building area. The shape can be described by its aspect ratio or can be defined as a set width. Because this measure contains both DOE and DEER inputs, care needs to be taken to choose a template compatable with the selected building types. See readme document for additional guidance.",
         "name" : "Create Bar From Building Type Ratios",
         "result" : 
         {
            "completed_at" : "20230601T164846Z",
            "measure_class_name" : "CreateBarFromBuildingTypeRatios",
            "measure_display_name" : "Create Bar From Building Type Ratios",
            "measure_name" : "create_bar_from_building_type_ratios",
            "measure_taxonomy" : "Envelope.Form",
            "measure_type" : "ModelMeasure",
            "measure_uid" : "6e3a14f8-c3c7-4e03-bc51-bef8a52e1a05",
            "measure_version_id" : "284657fc-3c1a-44b5-a173-4c83ed184791",
            "measure_version_modified" : "20220706T134207Z",
            "measure_xml_checksum" : "2AF3A68E",
            "started_at" : "20230601T164845Z",
            "stderr" : "",
            "stdout" : "",
            "step_errors" : [],
            "step_files" : [],
            "step_final_condition" : "The building finished with 1 spaces.",
            "step_info" : 
            [
               "0.0 value for minimum perimeter multiplier will be replaced with smart default for SmallOffice of 1.0.",
               "0.0 value for window to wall ratio will be replaced with smart default for SmallOffice of 0.15.",
               "Removed 374 non resource objects from the model.",
               "Creating Space Types for SmallOffice.",
               "Making bar with length of 49 ft and width of 33 ft",
               "Intersecting and matching surfaces in model, this will create additional geometry.",
               "Created bar envelope with floor area of 1,628 ft^2."
            ],
            "step_initial_condition" : "The building started with 6 spaces.",
            "step_result" : "Success",
            "step_values" : 
            [
               {
                  "name" : "bldg_type_a",
                  "value" : "SmallOffice"
               },
               {
                  "name" : "bldg_subtype_a",
                  "value" : "NA"
               },
               {
                  "name" : "bldg_type_a_num_units",
                  "value" : 1
               },
               {
                  "name" : "bldg_type_b",
                  "value" : "SmallOffice"
               },
               {
                  "name" : "bldg_subtype_b",
                  "value" : "NA"
               },
               {
                  "name" : "bldg_type_b_fract_bldg_area",
                  "value" : 0.0
               },
               {
                  "name" : "bldg_type_b_num_units",
                  "value" : 1
               },
               {
                  "name" : "bldg_type_c",
                  "value" : "SmallOffice"
               },
               {
                  "name" : "bldg_subtype_c",
                  "value" : "NA"
               },
               {
                  "name" : "bldg_type_c_fract_bldg_area",
                  "value" : 0.0
               },
               {
                  "name" : "bldg_type_c_num_units",
                  "value" : 1
               },
               {
                  "name" : "bldg_type_d",
                  "value" : "SmallOffice"
               },
               {
                  "name" : "bldg_subtype_d",
                  "value" : "NA"
               },
               {
                  "name" : "bldg_type_d_fract_bldg_area",
                  "value" : 0.0
               },
               {
                  "name" : "bldg_type_d_num_units",
                  "value" : 1
               },
               {
                  "name" : "single_floor_area",
                  "value" : 0.0
               },
               {
                  "name" : "total_bldg_floor_area",
                  "value" : 1628.0
               },
               {
                  "name" : "floor_height",
                  "value" : 10.0
               },
               {
                  "name" : "custom_height_bar",
                  "value" : true
               },
               {
                  "name" : "num_stories_above_grade",
                  "value" : 1.0
               },
               {
                  "name" : "num_stories_below_grade",
                  "value" : 0
               },
               {
                  "name" : "building_rotation",
                  "value" : 0.0
               },
               {
                  "name" : "template",
                  "value" : "DOE Ref 1980-2004"
               },
               {
                  "name" : "ns_to_ew_ratio",
                  "value" : 1.5
               },
               {
                  "name" : "perim_mult",
                  "value" : 0.0
               },
               {
                  "name" : "bar_sep_dist_mult",
                  "value" : 10.0
               },
               {
                  "name" : "wwr",
                  "value" : 0.0
               },
               {
                  "name" : "party_wall_fraction",
                  "value" : 0.0
               },
               {
                  "name" : "party_wall_stories_north",
                  "value" : 0
               },
               {
                  "name" : "party_wall_stories_south",
                  "value" : 0
               },
               {
                  "name" : "party_wall_stories_east",
                  "value" : 0
               },
               {
                  "name" : "party_wall_stories_west",
                  "value" : 0
               },
               {
                  "name" : "neighbor_height_method",
                  "value" : "Absolute"
               },
               {
                  "name" : "building_height_relative_to_neighbors",
                  "value" : 0.0
               },
               {
                  "name" : "neighbor_height_north",
                  "value" : 0.0
               },
               {
                  "name" : "neighbor_height_south",
                  "value" : 0.0
               },
               {
                  "name" : "neighbor_height_east",
                  "value" : 0.0
               },
               {
                  "name" : "neighbor_height_west",
                  "value" : 0.0
               },
               {
                  "name" : "neighbor_offset_north",
                  "value" : 0.0
               },
               {
                  "name" : "neighbor_offset_south",
                  "value" : 0.0
               },
               {
                  "name" : "neighbor_offset_east",
                  "value" : 0.0
               },
               {
                  "name" : "neighbor_offset_west",
                  "value" : 0.0
               },
               {
                  "name" : "bottom_story_ground_exposed_floor",
                  "value" : true
               },
               {
                  "name" : "top_story_exterior_exposed_roof",
                  "value" : true
               },
               {
                  "name" : "story_multiplier",
                  "value" : "Basements Ground Mid Top"
               },
               {
                  "name" : "make_mid_story_surfaces_adiabatic",
                  "value" : false
               },
               {
                  "name" : "bar_division_method",
                  "value" : "Multiple Space Types - Individual Stories Sliced"
               },
               {
                  "name" : "double_loaded_corridor",
                  "value" : "Primary Space Type"
               },
               {
                  "name" : "space_type_sort_logic",
                  "value" : "Building Type > Size"
               },
               {
                  "name" : "use_upstream_args",
                  "value" : true
               },
               {
                  "name" : "climate_zone",
                  "value" : "ASHRAE 169-2013-8A"
               },
               {
                  "name" : "wall_area_ip",
                  "units" : "ft^2",
                  "value" : 1647.2198800807741
               },
               {
                  "name" : "ns_wall_area_ip",
                  "units" : "ft^2",
                  "value" : 988.33192804846465
               },
               {
                  "name" : "ew_wall_area_ip",
                  "units" : "ft^2",
                  "value" : 658.88795203230961
               },
               {
                  "name" : "floor_area_to_perim_ratio",
                  "value" : 3.0124357166917202
               },
               {
                  "name" : "bar_width",
                  "units" : "ft",
                  "value" : 32.944397601615563
               }
            ],
            "step_warnings" : 
            [
               "Not modeling core and perimeter zones for some portion of the model."
            ]
         }
      },
      {
         "arguments" : 
         {
            "add_elevators" : false,
            "add_exterior_lights" : false,
            "add_refrigeration" : false,
            "clg_src" : "DistrictCooling",
            "climate_zone" : "ASHRAE 169-2013-8A",
            "exterior_lighting_zone" : "0 - Undeveloped Areas Parks",
            "htg_src" : "DistrictHeating",
            "kitchen_makeup" : "None",
            "modify_wkdy_op_hrs" : true,
            "modify_wknd_op_hrs" : false,
            "onsite_parking_fraction" : 0,
            "system_type" : "PSZ-AC with gas coil",
            "template" : "DOE Ref 1980-2004",
            "wall_construction_type" : "Mass",
            "wkdy_op_hrs_duration" : 0,
            "wkdy_op_hrs_start_time" : 0,
            "wknd_op_hrs_duration" : 0,
            "wknd_op_hrs_start_time" : 0
         },
         "description" : "Takes a model with space and stub space types, and assigns constructions, schedules, internal loads, hvac, and other loads such as exterior lights and service water heating.",
         "measure_dir_name" : "create_typical_building_from_model 1",
         "modeler_description" : "It is important that the template argument chosen for this measure is in line with the building types for the stub space types of the model passed in.",
         "name" : "Create Typical Building from Model",
         "result" : 
         {
            "completed_at" : "20230601T164855Z",
            "measure_class_name" : "CreateTypicalBuildingFromModel",
            "measure_display_name" : "Create Typical Building from Model",
            "measure_name" : "create_typical_building_from_model",
            "measure_taxonomy" : "Whole Building.Space Types",
            "measure_type" : "ModelMeasure",
            "measure_uid" : "339a2e3a-273c-4494-bb50-bfe586a0647c",
            "measure_version_id" : "3a5df9be-08ca-4108-af82-2e1aaa539a88",
            "measure_version_modified" : "20220913T124426Z",
            "measure_xml_checksum" : "EE13F09F",
            "started_at" : "20230601T164846Z",
            "stderr" : "",
            "stdout" : "[utilities.geometry.join] <1> Union has inner loops\n[utilities.geometry.join] <1> Union has inner loops\n[utilities.geometry.join] <1> Union has inner loops\n[utilities.geometry.joinAll] <1> Could not join all connected components\n[utilities.geometry.join] <1> Union has inner loops\n[utilities.geometry.join] <1> Union has inner loops\n[utilities.geometry.join] <1> Union has inner loops\n[utilities.geometry.joinAll] <1> Could not join all connected components\n",
            "step_errors" : [],
            "step_files" : [],
            "step_final_condition" : "The building finished with 559 objects.",
            "step_info" : 
            [
               "Replacing argument named climate_zone from current measure with a value of ASHRAE 169-2013-8A from Create Bar From Building Type Ratios.",
               "Replacing argument named template from current measure with a value of DOE Ref 1980-2004 from Create Bar From Building Type Ratios.",
               "Using climate zone ASHRAE 169-2013-8A from user arguments",
               "Adding loads to space type named Office Attic - DOE Ref 1980-2004",
               "Adding loads to space type named Office WholeBuilding - Sm Office - DOE Ref 1980-2004",
               "Adding loads to space type named Office WholeBuilding - Sm Office 2 - DOE Ref 1980-2004",
               "Using climate zone ASHRAE 169-2013-8A from user arguments",
               "Set FC factor constructions for slab and below grade walls.",
               "Adding default construction set named DOE Ref 1980-2004 - Office - ASHRAE 169-2013-8A",
               "Exterior wall construction type Mass is the default for this building type.",
               "Adding Office Shared Service Water Loop to the building. It has 1 water use connections.",
               "Assigning Office WholeBuilding - Sm Office - DOE Ref 1980-2004 Thermostat to thermal zones with Office WholeBuilding - Sm Office - DOE Ref 1980-2004 assigned.",
               "Assigning Office WholeBuilding - Sm Office 2 - DOE Ref 1980-2004 Thermostat to thermal zones with Office WholeBuilding - Sm Office 2 - DOE Ref 1980-2004 assigned.",
               "Updated 7 schedules with new hours of operation.",
               "Using OpenStudio Standards version 0.3.1.rc1 with template DOE Ref 1980-2004.",
               "Loading OpenStudio Standards data for DOE Ref 1980-2004",
               "Office Attic had no ventilation specification, one has been created.",
               "Office Attic set infiltration schedule to Small Office Infil Quarter On.",
               "Office WholeBuilding - Sm Office had no people, one has been created.",
               "Office WholeBuilding - Sm Office set occupancy to 5.0 people/1000 ft^2.",
               "Office WholeBuilding - Sm Office had no lights, one has been created.",
               "Office WholeBuilding - Sm Office set LPD to 1.81 W/ft^2.",
               "Office WholeBuilding - Sm Office had no electric equipment, one has been created.",
               "Office WholeBuilding - Sm Office set electric EPD to 1.0 W/ft^2.",
               "Office WholeBuilding - Sm Office had no ventilation specification, one has been created.",
               "Office WholeBuilding - Sm Office set ventilation per person to 20.0 cfm/person.",
               "Office WholeBuilding - Sm Office set occupancy schedule to Small Office Bldg Occ.",
               "Office WholeBuilding - Sm Office set occupant activity schedule to Small Office Activity.",
               "Office WholeBuilding - Sm Office set lighting schedule to Office Bldg Light.",
               "Office WholeBuilding - Sm Office set electric equipment schedule to Small Office Bldg Equip.",
               "Office WholeBuilding - Sm Office set infiltration schedule to Small Office Infil Quarter On.",
               "Office WholeBuilding - Sm Office 2 had no people, one has been created.",
               "Office WholeBuilding - Sm Office 2 set occupancy to 5.0 people/1000 ft^2.",
               "Office WholeBuilding - Sm Office 2 had no lights, one has been created.",
               "Office WholeBuilding - Sm Office 2 set LPD to 1.81 W/ft^2.",
               "Office WholeBuilding - Sm Office 2 had no electric equipment, one has been created.",
               "Office WholeBuilding - Sm Office 2 set electric EPD to 1.0 W/ft^2.",
               "Office WholeBuilding - Sm Office 2 had no ventilation specification, one has been created.",
               "Office WholeBuilding - Sm Office 2 set ventilation per person to 20.0 cfm/person.",
               "Office WholeBuilding - Sm Office 2 set occupancy schedule to Small Office Bldg Occ.",
               "Office WholeBuilding - Sm Office 2 set occupant activity schedule to Small Office Activity.",
               "Office WholeBuilding - Sm Office 2 set lighting schedule to Office Bldg Light.",
               "Office WholeBuilding - Sm Office 2 set electric equipment schedule to Small Office Bldg Equip.",
               "Office WholeBuilding - Sm Office 2 set infiltration schedule to Small Office Infil Quarter On.",
               "Adding construction set: DOE Ref 1980-2004-ASHRAE 169-2013-8A-Office--is_residentialNo",
               "Adding construction Typical Insulated Exterior Mass Floor.",
               "Adding construction Typical Insulated Exterior Mass Wall R-21.28.",
               "Adding construction Typical IEAD Roof R-32.26.",
               "Adding construction Typical Insulated Carpeted 6in Slab Floor.",
               "Adding construction U 0.52 SHGC 0.615 Simple Glazing Window U-0.52 SHGC 0.49.",
               "Adding construction U 0.52 SHGC 0.615 Simple Glazing Window U-0.52 SHGC 0.49 1.",
               "Adding construction Typical Insulated Metal Door.",
               "Adding construction U 0.88 SHGC 0.16 Sgl Ref-A-L Clr 6mm.",
               "Adding construction Typical Overhead Door.",
               "For Office WholeBuilding - Sm Office 2  - Story Ground, set infiltration rate to 0.202 cfm/ft2 exterior wall area (aka 1.8 cfm/ft2 @75Pa).",
               "Extracting weather files from OpenStudio CLI to /private/var/folders/cj/vhw1_9g1151dh76sjlgdyq19k7f3h5/T/osmodel-1685638045-3/resources/run/001_create_typical_building_from_model 1/extracted_files/weather",
               "Cannot identify standards building type and space type for Office Attic - DOE Ref 1980-2004, it won't be added to space_type_hash.",
               "Cannot identify standards building type and space type for Office WholeBuilding - Sm Office - DOE Ref 1980-2004, it won't be added to space_type_hash.",
               "For Office WholeBuilding - Sm Office 2 - DOE Ref 1980-2004, floor area = 1628 ft^2.",
               "For Office WholeBuilding - Sm Office 2 - DOE Ref 1980-2004, number of spaces = 1.",
               "For Office WholeBuilding - Sm Office 2 - DOE Ref 1980-2004, number of people = 8.",
               "Added Office WholeBuilding - Sm Office 2 - DOE Ref 1980-2004 Service Water Use 0.01gpm at 140F.",
               "Capacity of 932 Btu/hr = 1.0 peak fraction * 1 gal/hr * 8.4 lb/gal * 1.0 Btu/lb F * (140 - 40 deltaF / 0.8 htg eff).",
               "Capacity of 932 Btu/hr = 1.0 peak fraction * 1 gal/hr * 8.4 lb/gal * 1.0 Btu/lb F * (140 - 40 deltaF / 0.8 htg eff).",
               "Added water heater called 40gal NaturalGas Water Heater - 1kBtu/hr",
               "Pipe length 81ft = 2.0 * ( (1628ft2 / 1.0 stories)^0.5 + (10.0ft * (1.0 stories - 1.0) ) )",
               "Added 81ft of Copper pipe 0.75in type L with 0.5in fiberglass batt losing heat to 70F air to Office Shared Service Water Loop.",
               "Added circulating SWH loop called Office Shared Service Water Loop",
               "Adding shared water heating loop for Office.",
               "Started adding daylighting controls.",
               "Finished adding daylighting controls.",
               "Finished adding internal mass",
               "Office WholeBuilding - Sm Office - DOE Ref 1980-2004 set heating setpoint schedule to Small Office HtgSetp.",
               "Office WholeBuilding - Sm Office - DOE Ref 1980-2004 set cooling setpoint schedule to Small Office ClgSetp.",
               "Office WholeBuilding - Sm Office 2 - DOE Ref 1980-2004 set heating setpoint schedule to Small Office HtgSetp.",
               "Office WholeBuilding - Sm Office 2 - DOE Ref 1980-2004 set cooling setpoint schedule to Small Office ClgSetp.",
               "Final system type group: occ = nonresidential, area = 1628 ft2, num stories = 1, zones:",
               "--- Zone Office WholeBuilding - Sm Office 2  - Story Ground",
               "Adding PSZ-AC for Zone Office WholeBuilding - Sm Office 2  - Story Ground.",
               "Model has design level of 8.13999999999996 people in non residential spaces and 0 people in residential spaces.",
               "For Office Bldg Light, applying parametric schedules made a 64.6% change in annual equivalent full load hours. (from 2939.2 to 1041.08)",
               "For OfficeSmall BLDG_SWH_SCH, applying parametric schedules made a -3.6% change in annual equivalent full load hours. (from 2064.4 to 2138.16)",
               "For Small Office Bldg Equip Default profile item 2 time was 26.0 and item 3 time was 22.5. Last buffer is 4.0. Changing both times to 24.25.",
               "For Small Office Bldg Equip Default profile item 3 time was 24.25 and item 4 time was 23.5. Last buffer is 0.0. Changing both times to 24.25.",
               "For Small Office Bldg Equip, applying parametric schedules made a 22.5% change in annual equivalent full load hours. (from 4487.0 to 3475.2)",
               "For Small Office Bldg Occ, applying parametric schedules made a 76.0% change in annual equivalent full load hours. (from 2464.8 to 592.51)",
               "For Small Office ClgSetp, applying parametric schedules made a -3.2% change in annual equivalent full load hours. (from 220975.2 to 227995.2)",
               "For Small Office HtgSetp, applying parametric schedules made a 8.6% change in annual equivalent full load hours. (from 162489.6 to 148449.6)",
               "Set sizing factors to 1.25 for heating and 1.15 for cooling.",
               "Running simulation /private/var/folders/cj/vhw1_9g1151dh76sjlgdyq19k7f3h5/T/osmodel-1685638045-3/resources/run/001_create_typical_building_from_model 1/SR1.",
               "Finished run.",
               "Started applying multizone vav OA sizing.",
               "Finished applying multizone vav OA sizing.",
               "Started applying prototype HVAC assumptions.",
               "For Prototype: Zone Office WholeBuilding - Sm Office 2  - Story Ground PSZ-AC Fan: 1222cfm; Pressure Rise = 2.5in w.c.",
               "For Zone Office WholeBuilding - Sm Office 2  - Story Ground PSZ-AC Fan: allowed_hp = 1.01HP; motor eff = 84.0%; total fan eff = 55% based on 1222 cfm.",
               "Zone Office WholeBuilding - Sm Office 2  - Story Ground PSZ-AC does not require an economizer because the total cooling capacity of 32587 Btu/hr is less than the minimum capacity of 35000 Btu/hr.",
               "For Main Service Water Loop, serves 0 ft^2.",
               "Finished applying prototype HVAC assumptions.",
               "Started applying HVAC efficiency standards for DOE Ref 1980-2004 template.",
               "For Zone Office WholeBuilding - Sm Office 2  - Story Ground PSZ-AC: Annual occupied hours = 987 hr/yr, assuming a 0.15 occupancy threshold.  This schedule will be used as the HVAC operation schedule.",
               "For Zone Office WholeBuilding - Sm Office 2  - Story Ground PSZ-AC, ERV not required based on 13% OA flow, design supply air flow of 1222cfm, and climate zone ASHRAE 169-2013-8A.",
               "For Zone Office WholeBuilding - Sm Office 2  - Story Ground PSZ-AC: non-integrated economizer per 6.5.1.3 exception b, DX system less than 65000Btu/hr.",
               "For DOE Ref 1980-2004 ASHRAE 169-2013-8A:  Zone Office WholeBuilding - Sm Office 2  - Story Ground PSZ-AC: DCV is not required for any system.",
               "For Zone Office WholeBuilding - Sm Office 2  - Story Ground PSZ-AC: No special economizer controls were modeled.",
               "For Zone Office WholeBuilding - Sm Office 2  - Story Ground PSZ-AC Fan: motor nameplate = 1.0HP, motor eff = 82.5%.",
               "For Office Shared Service Water Loop Circulator Pump: brake hp = 0.0HP, motor nameplate = 1.0HP, motor eff = 82.5%.",
               "For Main Service Water Loop Water Mains Pressure Driven: brake hp = 0.0HP, motor nameplate = 0HP, motor eff = 100.0%.",
               "For DOE Ref 1980-2004: Zone Office WholeBuilding - Sm Office 2  - Story Ground PSZ-AC 1spd DX AC Clg Coil: AirCooled  Single Package Capacity = 33kBtu/hr; SEER = 9.7",
               "For DOE Ref 1980-2004: 40gal Electricity Water Heater - 40kBtu/hr 1.0 Therm Eff 1.0 Therm Eff; thermal efficiency = 1.0, skin-loss UA = 4Btu/hr-R",
               "For DOE Ref 1980-2004: 40gal NaturalGas Water Heater - 1kBtu/hr 0.78 Therm Eff; thermal efficiency = 0.78, skin-loss UA = 11Btu/hr-R",
               "For DOE Ref 1980-2004: Zone Office WholeBuilding - Sm Office 2  - Story Ground PSZ-AC Gas Htg Coil: = 80kBtu/hr; Thermal Efficiency = 0.8",
               "Finished applying HVAC efficiency standards for DOE Ref 1980-2004 template.",
               "Added internal mass 'Office WholeBuilding - Sm Office 2  - Story Ground Mass' to space 'Office WholeBuilding - Sm Office 2  - Story Ground'.",
               "Finished adding internal mass",
               "Cannot remove Object of type 'OS:Schedule:Day' and named 'Economizer Max OA Fraction 70 pct Default 1', because that would invalidate Object of type 'OS:Schedule:Ruleset' and named 'Economizer Max OA Fraction 70 pct'.",
               "Cannot remove Object of type 'OS:Schedule:Day' and named 'Office Shared Service Water Loop Piping Air Temp - 70F Default', because that would invalidate Object of type 'OS:Schedule:Ruleset' and named 'Office Shared Service Water Loop Piping Air Temp - 70F'.",
               "Cannot remove Object of type 'OS:Schedule:Day' and named 'Schedule Day 13', because that would invalidate Object of type 'OS:Schedule:Ruleset' and named 'Schedule Ruleset 2'.",
               "Cannot remove Object of type 'OS:Schedule:Day' and named 'Schedule Day 12', because that would invalidate Object of type 'OS:Schedule:Ruleset' and named 'Schedule Ruleset 1'.",
               "Cannot remove Object of type 'OS:Schedule:Day' and named 'Schedule Day 1', because that would invalidate Object of type 'OS:Schedule:Ruleset' and named 'People occupancy'.",
               "Cannot remove Object of type 'OS:Schedule:Day' and named 'PerimeterZN4ZNPSZAC5maxOASchDefault', because that would invalidate Object of type 'OS:Schedule:Ruleset' and named 'PerimeterZN4ZNPSZAC5maxOASch'.",
               "Cannot remove Object of type 'OS:Schedule:Day' and named 'PerimeterZN3ZNPSZAC4maxOASchDefault', because that would invalidate Object of type 'OS:Schedule:Ruleset' and named 'PerimeterZN3ZNPSZAC4maxOASch'.",
               "Cannot remove Object of type 'OS:Schedule:Day' and named 'PerimeterZN2ZNPSZAC3maxOASchDefault', because that would invalidate Object of type 'OS:Schedule:Ruleset' and named 'PerimeterZN2ZNPSZAC3maxOASch'.",
               "Cannot remove Object of type 'OS:Schedule:Day' and named 'PerimeterZN1ZNPSZAC2maxOASchDefault', because that would invalidate Object of type 'OS:Schedule:Ruleset' and named 'PerimeterZN1ZNPSZAC2maxOASch'.",
               "Cannot remove Object of type 'OS:Schedule:Day' and named 'CoreZNZNPSZAC1maxOASchDefault', because that would invalidate Object of type 'OS:Schedule:Ruleset' and named 'CoreZNZNPSZAC1maxOASch'.",
               "Cannot remove Object of type 'OS:Schedule:Day' and named 'Always On Default', because that would invalidate Object of type 'OS:Schedule:Ruleset' and named 'Always On'.",
               "Cannot remove Object of type 'OS:Schedule:Day' and named 'OfficeSmall INFIL_Door_Opening_SCH_2013 Summer Design Day', because that would invalidate Object of type 'OS:Schedule:Ruleset' and named 'OfficeSmall INFIL_Door_Opening_SCH_2013'.",
               "Cannot remove Object of type 'OS:Schedule:Day' and named 'OfficeSmall INFIL_Door_Opening_SCH_2013 Winter Design Day', because that would invalidate Object of type 'OS:Schedule:Ruleset' and named 'OfficeSmall INFIL_Door_Opening_SCH_2013'.",
               "Cannot remove Object of type 'OS:Schedule:Day' and named 'OfficeSmall INFIL_Door_Opening_SCH_2013 Default', because that would invalidate Object of type 'OS:Schedule:Ruleset' and named 'OfficeSmall INFIL_Door_Opening_SCH_2013'.",
               "Cannot remove Object of type 'OS:Schedule:Day' and named 'OfficeSmall MinOA_MotorizedDamper_Sched Summer Design Day', because that would invalidate Object of type 'OS:Schedule:Ruleset' and named 'OfficeSmall MinOA_MotorizedDamper_Sched'.",
               "Cannot remove Object of type 'OS:Schedule:Day' and named 'OfficeSmall MinOA_MotorizedDamper_Sched Winter Design Day', because that would invalidate Object of type 'OS:Schedule:Ruleset' and named 'OfficeSmall MinOA_MotorizedDamper_Sched'.",
               "Cannot remove Object of type 'OS:Schedule:Day' and named 'OfficeSmall MinOA_MotorizedDamper_Sched Default', because that would invalidate Object of type 'OS:Schedule:Ruleset' and named 'OfficeSmall MinOA_MotorizedDamper_Sched'.",
               "Cannot remove Object of type 'OS:Schedule:Day' and named 'OfficeSmall HVACOperationSchd Summer Design Day', because that would invalidate Object of type 'OS:Schedule:Ruleset' and named 'OfficeSmall HVACOperationSchd'.",
               "Cannot remove Object of type 'OS:Schedule:Day' and named 'OfficeSmall HVACOperationSchd Winter Design Day', because that would invalidate Object of type 'OS:Schedule:Ruleset' and named 'OfficeSmall HVACOperationSchd'.",
               "Cannot remove Object of type 'OS:Schedule:Day' and named 'OfficeSmall HVACOperationSchd Default', because that would invalidate Object of type 'OS:Schedule:Ruleset' and named 'OfficeSmall HVACOperationSchd'.",
               "Cannot remove Object of type 'OS:Schedule:Day' and named 'OfficeSmall CLGSETP_SCH_NO_OPTIMUM Winter Design Day', because that would invalidate Object of type 'OS:Schedule:Ruleset' and named 'OfficeSmall CLGSETP_SCH_NO_OPTIMUM'.",
               "Cannot remove Object of type 'OS:Schedule:Day' and named 'OfficeSmall CLGSETP_SCH_NO_OPTIMUM Summer Design Day', because that would invalidate Object of type 'OS:Schedule:Ruleset' and named 'OfficeSmall CLGSETP_SCH_NO_OPTIMUM'.",
               "Cannot remove Object of type 'OS:Schedule:Day' and named 'OfficeSmall CLGSETP_SCH_NO_OPTIMUM Default', because that would invalidate Object of type 'OS:Schedule:Ruleset' and named 'OfficeSmall CLGSETP_SCH_NO_OPTIMUM'.",
               "Cannot remove Object of type 'OS:Schedule:Day' and named 'OfficeSmall HTGSETP_SCH_NO_OPTIMUM Winter Design Day', because that would invalidate Object of type 'OS:Schedule:Ruleset' and named 'OfficeSmall HTGSETP_SCH_NO_OPTIMUM'.",
               "Cannot remove Object of type 'OS:Schedule:Day' and named 'OfficeSmall HTGSETP_SCH_NO_OPTIMUM Summer Design Day', because that would invalidate Object of type 'OS:Schedule:Ruleset' and named 'OfficeSmall HTGSETP_SCH_NO_OPTIMUM'.",
               "Cannot remove Object of type 'OS:Schedule:Day' and named 'OfficeSmall HTGSETP_SCH_NO_OPTIMUM Default', because that would invalidate Object of type 'OS:Schedule:Ruleset' and named 'OfficeSmall HTGSETP_SCH_NO_OPTIMUM'.",
               "Cannot remove Object of type 'OS:Schedule:Day' and named 'OfficeSmall INFIL_QUARTER_ON_SCH Winter Design Day', because that would invalidate Object of type 'OS:Schedule:Ruleset' and named 'OfficeSmall INFIL_QUARTER_ON_SCH'.",
               "Cannot remove Object of type 'OS:Schedule:Day' and named 'OfficeSmall INFIL_QUARTER_ON_SCH Summer Design Day', because that would invalidate Object of type 'OS:Schedule:Ruleset' and named 'OfficeSmall INFIL_QUARTER_ON_SCH'.",
               "Cannot remove Object of type 'OS:Schedule:Day' and named 'OfficeSmall INFIL_QUARTER_ON_SCH Default', because that would invalidate Object of type 'OS:Schedule:Ruleset' and named 'OfficeSmall INFIL_QUARTER_ON_SCH'.",
               "Cannot remove Object of type 'OS:Schedule:Day' and named 'OfficeSmall BLDG_EQUIP_SCH_2013 Winter Design Day', because that would invalidate Object of type 'OS:Schedule:Ruleset' and named 'OfficeSmall BLDG_EQUIP_SCH_2013'.",
               "Cannot remove Object of type 'OS:Schedule:Day' and named 'OfficeSmall BLDG_EQUIP_SCH_2013 Summer Design Day', because that would invalidate Object of type 'OS:Schedule:Ruleset' and named 'OfficeSmall BLDG_EQUIP_SCH_2013'.",
               "Cannot remove Object of type 'OS:Schedule:Day' and named 'OfficeSmall BLDG_EQUIP_SCH_2013 Default', because that would invalidate Object of type 'OS:Schedule:Ruleset' and named 'OfficeSmall BLDG_EQUIP_SCH_2013'.",
               "Cannot remove Object of type 'OS:Schedule:Day' and named 'OfficeSmall BLDG_LIGHT_SCH_2013 Winter Design Day', because that would invalidate Object of type 'OS:Schedule:Ruleset' and named 'OfficeSmall BLDG_LIGHT_SCH_2013'.",
               "Cannot remove Object of type 'OS:Schedule:Day' and named 'OfficeSmall BLDG_LIGHT_SCH_2013 Summer Design Day', because that would invalidate Object of type 'OS:Schedule:Ruleset' and named 'OfficeSmall BLDG_LIGHT_SCH_2013'.",
               "Cannot remove Object of type 'OS:Schedule:Day' and named 'OfficeSmall BLDG_LIGHT_SCH_2013 Default', because that would invalidate Object of type 'OS:Schedule:Ruleset' and named 'OfficeSmall BLDG_LIGHT_SCH_2013'.",
               "Cannot remove Object of type 'OS:Schedule:Day' and named 'OfficeSmall ACTIVITY_SCH Summer Design Day', because that would invalidate Object of type 'OS:Schedule:Ruleset' and named 'OfficeSmall ACTIVITY_SCH'.",
               "Cannot remove Object of type 'OS:Schedule:Day' and named 'OfficeSmall ACTIVITY_SCH Winter Design Day', because that would invalidate Object of type 'OS:Schedule:Ruleset' and named 'OfficeSmall ACTIVITY_SCH'.",
               "Cannot remove Object of type 'OS:Schedule:Day' and named 'OfficeSmall ACTIVITY_SCH Default', because that would invalidate Object of type 'OS:Schedule:Ruleset' and named 'OfficeSmall ACTIVITY_SCH'.",
               "Cannot remove Object of type 'OS:Schedule:Day' and named 'OfficeSmall BLDG_OCC_SCH Summer Design Day', because that would invalidate Object of type 'OS:Schedule:Ruleset' and named 'OfficeSmall BLDG_OCC_SCH'.",
               "Cannot remove Object of type 'OS:Schedule:Day' and named 'OfficeSmall BLDG_OCC_SCH Winter Design Day', because that would invalidate Object of type 'OS:Schedule:Ruleset' and named 'OfficeSmall BLDG_OCC_SCH'.",
               "Cannot remove Object of type 'OS:Schedule:Day' and named 'OfficeSmall BLDG_OCC_SCH Default', because that would invalidate Object of type 'OS:Schedule:Ruleset' and named 'OfficeSmall BLDG_OCC_SCH'.",
               "Cannot remove Object of type 'OS:Schedule:Day' and named 'OfficeLarge INFIL_SCH_PNNL Winter Design Day', because that would invalidate Object of type 'OS:Schedule:Ruleset' and named 'OfficeLarge INFIL_SCH_PNNL'.",
               "Cannot remove Object of type 'OS:Schedule:Day' and named 'OfficeLarge INFIL_SCH_PNNL Summer Design Day', because that would invalidate Object of type 'OS:Schedule:Ruleset' and named 'OfficeLarge INFIL_SCH_PNNL'.",
               "Cannot remove Object of type 'OS:Schedule:Day' and named 'OfficeLarge INFIL_SCH_PNNL Default', because that would invalidate Object of type 'OS:Schedule:Ruleset' and named 'OfficeLarge INFIL_SCH_PNNL'."
            ],
            "step_initial_condition" : "The building started with 518 objects.",
            "step_result" : "Success",
            "step_values" : 
            [
               {
                  "name" : "template",
                  "value" : "DOE Ref 1980-2004"
               },
               {
                  "name" : "system_type",
                  "value" : "PSZ-AC with gas coil"
               },
               {
                  "name" : "hvac_delivery_type",
                  "value" : "Forced Air"
               },
               {
                  "name" : "htg_src",
                  "value" : "DistrictHeating"
               },
               {
                  "name" : "clg_src",
                  "value" : "DistrictCooling"
               },
               {
                  "name" : "swh_src",
                  "value" : "Inferred"
               },
               {
                  "name" : "kitchen_makeup",
                  "value" : "None"
               },
               {
                  "name" : "exterior_lighting_zone",
                  "value" : "0 - Undeveloped Areas Parks"
               },
               {
                  "name" : "add_constructions",
                  "value" : true
               },
               {
                  "name" : "wall_construction_type",
                  "value" : "Mass"
               },
               {
                  "name" : "add_space_type_loads",
                  "value" : true
               },
               {
                  "name" : "add_elevators",
                  "value" : false
               },
               {
                  "name" : "add_internal_mass",
                  "value" : true
               },
               {
                  "name" : "add_exterior_lights",
                  "value" : false
               },
               {
                  "name" : "onsite_parking_fraction",
                  "value" : 0.0
               },
               {
                  "name" : "add_exhaust",
                  "value" : true
               },
               {
                  "name" : "add_swh",
                  "value" : true
               },
               {
                  "name" : "add_thermostat",
                  "value" : true
               },
               {
                  "name" : "add_hvac",
                  "value" : true
               },
               {
                  "name" : "add_refrigeration",
                  "value" : false
               },
               {
                  "name" : "modify_wkdy_op_hrs",
                  "value" : true
               },
               {
                  "name" : "wkdy_op_hrs_start_time",
                  "value" : 0.0
               },
               {
                  "name" : "wkdy_op_hrs_duration",
                  "value" : 0.0
               },
               {
                  "name" : "modify_wknd_op_hrs",
                  "value" : false
               },
               {
                  "name" : "wknd_op_hrs_start_time",
                  "value" : 0.0
               },
               {
                  "name" : "wknd_op_hrs_duration",
                  "value" : 0.0
               },
               {
                  "name" : "unmet_hours_tolerance",
                  "value" : 1.0
               },
               {
                  "name" : "remove_objects",
                  "value" : true
               },
               {
                  "name" : "use_upstream_args",
                  "value" : true
               },
               {
                  "name" : "climate_zone",
                  "value" : "ASHRAE 169-2013-8A"
               }
            ],
            "step_warnings" : 
            [
               "Set Pipe:Indoor ambient temp schedules to 67.3F to avoid E+ issue 9650, remove once fixed.",
               "[openstudio.standards.Model] For Office WholeBuilding - Sm Office People, Air Velocity Schedule is not setup as parametric schedule. It has 2 sources.",
               "[openstudio.standards.Model] For , Building Hours of Operation NonResidential is not setup as parametric schedule. It has 4 sources.",
               "[openstudio.standards.Model] For Schedule Rule 3, Clothing Schedule is not setup as parametric schedule. It has 3 sources.",
               "[openstudio.standards.Model] For Office WholeBuilding - Sm Office 2 - DOE Ref 1980-2004 Service Water Use Def 0.01gpm, Fraction Latent - 0.05 is not setup as parametric schedule. It has 2 sources.",
               "[openstudio.standards.Model] For Office WholeBuilding - Sm Office 2 - DOE Ref 1980-2004 Service Water Use Def 0.01gpm, Fraction Sensible - 0.2 is not setup as parametric schedule. It has 2 sources.",
               "[openstudio.standards.Model] For Office WholeBuilding - Sm Office 2 - DOE Ref 1980-2004 Service Water Use Def 0.01gpm, Mixed Water At Faucet Temp - 140F is not setup as parametric schedule. It has 2 sources.",
               "[openstudio.standards.Model] For Office Shared Service Water Loop Pipe 80.69696400732786ft, Office Shared Service Water Loop Piping Air Velocity - 0.67mph is not setup as parametric schedule. It has 1 sources.",
               "[openstudio.standards.Model] For Schedule Rule 1, OfficeLarge INFIL_SCH_PNNL is not setup as parametric schedule. It has 2 sources.",
               "[openstudio.standards.Model] For Schedule Rule 7, OfficeSmall BLDG_EQUIP_SCH_2013 is not setup as parametric schedule. It has 2 sources.",
               "[openstudio.standards.Model] For Schedule Rule 5, OfficeSmall BLDG_LIGHT_SCH_2013 is not setup as parametric schedule. It has 2 sources.",
               "[openstudio.standards.Model] For Schedule Rule 4, OfficeSmall BLDG_OCC_SCH is not setup as parametric schedule. It has 1 sources.",
               "[openstudio.standards.Model] For Schedule Rule 12, OfficeSmall CLGSETP_SCH_NO_OPTIMUM is not setup as parametric schedule. It has 1 sources.",
               "[openstudio.standards.Model] For NonDimming Exterior Lights Def, OfficeSmall Exterior_lighting_schedule_a is not setup as parametric schedule. It has 1 sources.",
               "[openstudio.standards.Model] For Occ Sensing Exterior Lights Def, OfficeSmall Exterior_lighting_schedule_b is not setup as parametric schedule. It has 1 sources.",
               "[openstudio.standards.Model] For Schedule Rule 11, OfficeSmall HTGSETP_SCH_NO_OPTIMUM is not setup as parametric schedule. It has 1 sources.",
               "[openstudio.standards.Model] For Schedule Rule 13, OfficeSmall HVACOperationSchd is not setup as parametric schedule. It has 1 sources.",
               "[openstudio.standards.Model] For Schedule Rule 15, OfficeSmall INFIL_Door_Opening_SCH_2013 is not setup as parametric schedule. It has 1 sources.",
               "[openstudio.standards.Model] For Schedule Rule 9, OfficeSmall INFIL_QUARTER_ON_SCH is not setup as parametric schedule. It has 2 sources.",
[...]
                  "units" : "kWh",
                  "value" : 0.0
               },
               {
                  "name" : "fuel_oil_no_1_exterior_lighting_ip",
                  "units" : "kWh",
                  "value" : 0.0
               },
               {
                  "name" : "fuel_oil_no_1_interior_equipment_ip",
                  "units" : "kWh",
                  "value" : 0.0
               },
               {
                  "name" : "fuel_oil_no_1_exterior_equipment_ip",
                  "units" : "kWh",
                  "value" : 0.0
               },
               {
                  "name" : "fuel_oil_no_1_fans_ip",
                  "units" : "kWh",
                  "value" : 0.0
               },
               {
                  "name" : "fuel_oil_no_1_pumps_ip",
                  "units" : "kWh",
                  "value" : 0.0
               },
               {
                  "name" : "fuel_oil_no_1_heat_rejection_ip",
                  "units" : "kWh",
                  "value" : 0.0
               },
               {
                  "name" : "fuel_oil_no_1_humidification_ip",
                  "units" : "kWh",
                  "value" : 0.0
               },
               {
                  "name" : "fuel_oil_no_1_heat_recovery_ip",
                  "units" : "kWh",
                  "value" : 0.0
               },
               {
                  "name" : "fuel_oil_no_1_water_systems_ip",
                  "units" : "kWh",
                  "value" : 0.0
               },
               {
                  "name" : "fuel_oil_no_1_refrigeration_ip",
                  "units" : "kWh",
                  "value" : 0.0
               },
               {
                  "name" : "fuel_oil_no_1_generators_ip",
                  "units" : "kWh",
                  "value" : 0.0
               },
               {
                  "name" : "fuel_oil_no_1_ip",
                  "units" : "kWh",
                  "value" : 0.0
               },
               {
                  "name" : "fuel_oil_no_2_heating_ip",
                  "units" : "kWh",
                  "value" : 0.0
               },
               {
                  "name" : "fuel_oil_no_2_cooling_ip",
                  "units" : "kWh",
                  "value" : 0.0
               },
               {
                  "name" : "fuel_oil_no_2_interior_lighting_ip",
                  "units" : "kWh",
                  "value" : 0.0
               },
               {
                  "name" : "fuel_oil_no_2_exterior_lighting_ip",
                  "units" : "kWh",
                  "value" : 0.0
               },
               {
                  "name" : "fuel_oil_no_2_interior_equipment_ip",
                  "units" : "kWh",
                  "value" : 0.0
               },
               {
                  "name" : "fuel_oil_no_2_exterior_equipment_ip",
                  "units" : "kWh",
                  "value" : 0.0
               },
               {
                  "name" : "fuel_oil_no_2_fans_ip",
                  "units" : "kWh",
                  "value" : 0.0
               },
               {
                  "name" : "fuel_oil_no_2_pumps_ip",
                  "units" : "kWh",
                  "value" : 0.0
               },
               {
                  "name" : "fuel_oil_no_2_heat_rejection_ip",
                  "units" : "kWh",
                  "value" : 0.0
               },
               {
                  "name" : "fuel_oil_no_2_humidification_ip",
                  "units" : "kWh",
                  "value" : 0.0
               },
               {
                  "name" : "fuel_oil_no_2_heat_recovery_ip",
                  "units" : "kWh",
                  "value" : 0.0
               },
               {
                  "name" : "fuel_oil_no_2_water_systems_ip",
                  "units" : "kWh",
                  "value" : 0.0
               },
               {
                  "name" : "fuel_oil_no_2_refrigeration_ip",
                  "units" : "kWh",
                  "value" : 0.0
               },
               {
                  "name" : "fuel_oil_no_2_generators_ip",
                  "units" : "kWh",
                  "value" : 0.0
               },
               {
                  "name" : "fuel_oil_no_2_ip",
                  "units" : "kWh",
                  "value" : 0.0
               },
               {
                  "name" : "propane_heating_ip",
                  "units" : "kWh",
                  "value" : 0.0
               },
               {
                  "name" : "propane_cooling_ip",
                  "units" : "kWh",
                  "value" : 0.0
               },
               {
                  "name" : "propane_interior_lighting_ip",
                  "units" : "kWh",
                  "value" : 0.0
               },
               {
                  "name" : "propane_exterior_lighting_ip",
                  "units" : "kWh",
                  "value" : 0.0
               },
               {
                  "name" : "propane_interior_equipment_ip",
                  "units" : "kWh",
                  "value" : 0.0
               },
               {
                  "name" : "propane_exterior_equipment_ip",
                  "units" : "kWh",
                  "value" : 0.0
               },
               {
                  "name" : "propane_fans_ip",
                  "units" : "kWh",
                  "value" : 0.0
               },
               {
                  "name" : "propane_pumps_ip",
                  "units" : "kWh",
                  "value" : 0.0
               },
               {
                  "name" : "propane_heat_rejection_ip",
                  "units" : "kWh",
                  "value" : 0.0
               },
               {
                  "name" : "propane_humidification_ip",
                  "units" : "kWh",
                  "value" : 0.0
               },
               {
                  "name" : "propane_heat_recovery_ip",
                  "units" : "kWh",
                  "value" : 0.0
               },
               {
                  "name" : "propane_water_systems_ip",
                  "units" : "kWh",
                  "value" : 0.0
               },
               {
                  "name" : "propane_refrigeration_ip",
                  "units" : "kWh",
                  "value" : 0.0
               },
               {
                  "name" : "propane_generators_ip",
                  "units" : "kWh",
                  "value" : 0.0
               },
               {
                  "name" : "propane_ip",
                  "units" : "kWh",
                  "value" : 0.0
               },
               {
                  "name" : "other_fuel_1_heating_ip",
                  "units" : "kWh",
                  "value" : 0.0
               },
               {
                  "name" : "other_fuel_1_cooling_ip",
                  "units" : "kWh",
                  "value" : 0.0
               },
               {
                  "name" : "other_fuel_1_interior_lighting_ip",
                  "units" : "kWh",
                  "value" : 0.0
               },
               {
                  "name" : "other_fuel_1_exterior_lighting_ip",
                  "units" : "kWh",
                  "value" : 0.0
               },
               {
                  "name" : "other_fuel_1_interior_equipment_ip",
                  "units" : "kWh",
                  "value" : 0.0
               },
               {
                  "name" : "other_fuel_1_exterior_equipment_ip",
                  "units" : "kWh",
                  "value" : 0.0
               },
               {
                  "name" : "other_fuel_1_fans_ip",
                  "units" : "kWh",
                  "value" : 0.0
               },
               {
                  "name" : "other_fuel_1_pumps_ip",
                  "units" : "kWh",
                  "value" : 0.0
               },
               {
                  "name" : "other_fuel_1_heat_rejection_ip",
                  "units" : "kWh",
                  "value" : 0.0
               },
               {
                  "name" : "other_fuel_1_humidification_ip",
                  "units" : "kWh",
                  "value" : 0.0
               },
               {
                  "name" : "other_fuel_1_heat_recovery_ip",
                  "units" : "kWh",
                  "value" : 0.0
               },
               {
                  "name" : "other_fuel_1_water_systems_ip",
                  "units" : "kWh",
                  "value" : 0.0
               },
               {
                  "name" : "other_fuel_1_refrigeration_ip",
                  "units" : "kWh",
                  "value" : 0.0
               },
               {
                  "name" : "other_fuel_1_generators_ip",
                  "units" : "kWh",
                  "value" : 0.0
               },
               {
                  "name" : "other_fuel_1_ip",
                  "units" : "kWh",
                  "value" : 0.0
               },
               {
                  "name" : "other_fuel_2_heating_ip",
                  "units" : "kWh",
                  "value" : 0.0
               },
               {
                  "name" : "other_fuel_2_cooling_ip",
                  "units" : "kWh",
                  "value" : 0.0
               },
               {
                  "name" : "other_fuel_2_interior_lighting_ip",
                  "units" : "kWh",
                  "value" : 0.0
               },
               {
                  "name" : "other_fuel_2_exterior_lighting_ip",
                  "units" : "kWh",
                  "value" : 0.0
               },
               {
                  "name" : "other_fuel_2_interior_equipment_ip",
                  "units" : "kWh",
                  "value" : 0.0
               },
               {
                  "name" : "other_fuel_2_exterior_equipment_ip",
                  "units" : "kWh",
                  "value" : 0.0
               },
               {
                  "name" : "other_fuel_2_fans_ip",
                  "units" : "kWh",
                  "value" : 0.0
               },
               {
                  "name" : "other_fuel_2_pumps_ip",
                  "units" : "kWh",
                  "value" : 0.0
               },
               {
                  "name" : "other_fuel_2_heat_rejection_ip",
                  "units" : "kWh",
                  "value" : 0.0
               },
               {
                  "name" : "other_fuel_2_humidification_ip",
                  "units" : "kWh",
                  "value" : 0.0
               },
               {
                  "name" : "other_fuel_2_heat_recovery_ip",
                  "units" : "kWh",
                  "value" : 0.0
               },
               {
                  "name" : "other_fuel_2_water_systems_ip",
                  "units" : "kWh",
                  "value" : 0.0
               },
               {
                  "name" : "other_fuel_2_refrigeration_ip",
                  "units" : "kWh",
                  "value" : 0.0
               },
               {
                  "name" : "other_fuel_2_generators_ip",
                  "units" : "kWh",
                  "value" : 0.0
               },
               {
                  "name" : "other_fuel_2_ip",
                  "units" : "kWh",
                  "value" : 0.0
               },
               {
                  "name" : "district_cooling_heating_ip",
                  "units" : "kWh",
                  "value" : 0.0
               },
               {
                  "name" : "district_cooling_cooling_ip",
                  "units" : "kWh",
                  "value" : 0.0
               },
               {
                  "name" : "district_cooling_interior_lighting_ip",
                  "units" : "kWh",
                  "value" : 0.0
               },
               {
                  "name" : "district_cooling_exterior_lighting_ip",
                  "units" : "kWh",
                  "value" : 0.0
               },
               {
                  "name" : "district_cooling_interior_equipment_ip",
                  "units" : "kWh",
                  "value" : 0.0
               },
               {
                  "name" : "district_cooling_exterior_equipment_ip",
                  "units" : "kWh",
                  "value" : 0.0
               },
               {
                  "name" : "district_cooling_fans_ip",
                  "units" : "kWh",
                  "value" : 0.0
               },
               {
                  "name" : "district_cooling_pumps_ip",
                  "units" : "kWh",
                  "value" : 0.0
               },
               {
                  "name" : "district_cooling_heat_rejection_ip",
                  "units" : "kWh",
                  "value" : 0.0
               },
               {
                  "name" : "district_cooling_humidification_ip",
                  "units" : "kWh",
                  "value" : 0.0
               },
               {
                  "name" : "district_cooling_heat_recovery_ip",
                  "units" : "kWh",
                  "value" : 0.0
               },
               {
                  "name" : "district_cooling_water_systems_ip",
                  "units" : "kWh",
                  "value" : 0.0
               },
               {
                  "name" : "district_cooling_refrigeration_ip",
                  "units" : "kWh",
                  "value" : 0.0
               },
               {
                  "name" : "district_cooling_generators_ip",
                  "units" : "kWh",
                  "value" : 0.0
               },
               {
                  "name" : "district_cooling_ip",
                  "units" : "kWh",
                  "value" : 0.0
               },
               {
                  "name" : "district_heating_heating_ip",
                  "units" : "kWh",
                  "value" : 0.0
               },
               {
                  "name" : "district_heating_cooling_ip",
                  "units" : "kWh",
                  "value" : 0.0
               },
               {
                  "name" : "district_heating_interior_lighting_ip",
                  "units" : "kWh",
                  "value" : 0.0
               },
               {
                  "name" : "district_heating_exterior_lighting_ip",
                  "units" : "kWh",
                  "value" : 0.0
               },
               {
                  "name" : "district_heating_interior_equipment_ip",
                  "units" : "kWh",
                  "value" : 0.0
               },
               {
                  "name" : "district_heating_exterior_equipment_ip",
                  "units" : "kWh",
                  "value" : 0.0
               },
               {
                  "name" : "district_heating_fans_ip",
                  "units" : "kWh",
                  "value" : 0.0
               },
               {
                  "name" : "district_heating_pumps_ip",
                  "units" : "kWh",
                  "value" : 0.0
               },
               {
                  "name" : "district_heating_heat_rejection_ip",
                  "units" : "kWh",
                  "value" : 0.0
               },
               {
                  "name" : "district_heating_humidification_ip",
                  "units" : "kWh",
                  "value" : 0.0
               },
               {
                  "name" : "district_heating_heat_recovery_ip",
                  "units" : "kWh",
                  "value" : 0.0
               },
               {
                  "name" : "district_heating_water_systems_ip",
                  "units" : "kWh",
                  "value" : 0.0
               },
               {
                  "name" : "district_heating_refrigeration_ip",
                  "units" : "kWh",
                  "value" : 0.0
               },
               {
                  "name" : "district_heating_generators_ip",
                  "units" : "kWh",
                  "value" : 0.0
               },
               {
                  "name" : "district_heating_ip",
                  "units" : "kWh",
                  "value" : 0.0
               },
               {
                  "name" : "typical_iead_roof_r_32_26",
                  "units" : "m^2",
                  "value" : 151.24614911999927
               },
               {
                  "name" : "typical_insulated_exterior_mass_wall_r_21_28",
                  "units" : "m^2",
                  "value" : 130.07697424674842
               },
               {
                  "name" : "u_0_52_shgc_0_615_simple_glazing_window_u_0_52_shgc_0_49",
                  "units" : "m^2",
                  "value" : 22.954760161190961
               },
               {
                  "name" : "gross_window_wall_ratio",
                  "units" : "%",
                  "value" : 15.0
               },
               {
                  "name" : "gross_window_wall_ratio_conditioned",
                  "units" : "%",
                  "value" : 15.0
               },
               {
                  "name" : "skylight_roof_ratio",
                  "units" : "%",
                  "value" : 0.0
               },
               {
                  "name" : "space_type_office_whole_building_sm_office_2_doe_ref_1980_2004",
                  "units" : "m^2",
                  "value" : 151.24614911999927
               },
               {
                  "name" : "office_whole_building_sm_office_2_doe_ref_1980_2004_service_water_use_0_01_gpm_at_140_f",
                  "units" : "m^3/h",
                  "value" : 0.003360223764324119
               },
               {
                  "name" : "zone_max_hours_over_70_rh",
                  "units" : "hr",
                  "value" : 11.0
               },
               {
                  "name" : "zone_max_hours_over_55_rh",
                  "units" : "hr",
                  "value" : 1085.0
               },
               {
                  "name" : "num_zones_x_hours_over_70",
                  "units" : "zones",
                  "value" : 1
               },
               {
                  "name" : "num_zones_x_hours_over_55",
                  "units" : "zones",
                  "value" : 1
               },
               {
                  "name" : "inflation_approach",
                  "value" : "Constant Dollar"
               },
               {
                  "name" : "analysis_length",
                  "units" : "yrs",
                  "value" : 25
               },
               {
                  "name" : "number_of_measures_with_warnings",
                  "value" : 2
               },
               {
                  "name" : "number_warnings",
                  "value" : 31
               },
               {
                  "name" : "annual_peak_electric_demand",
                  "units" : "kW",
                  "value" : 7.7891800000000009
               },
               {
                  "name" : "first_year_capital_cost",
                  "units" : "$",
                  "value" : 0.0
               },
               {
                  "name" : "annual_utility_cost",
                  "units" : "$",
                  "value" : 0.0
               },
               {
                  "name" : "total_lifecycle_cost",
                  "units" : "$",
                  "value" : 0.0
               }
            ],
            "step_warnings" : []
         }
      }
   ],
   "updated_at" : "20230601T164913Z",
   "weather_file" : "Kodiak_Airport_703500_TMY3.epw"
}