{
   "completed_at" : "20230621T232538Z",
   "completed_status" : "Success",
   "current_step" : 5,
   "eplusout_err" : "Program Version,EnergyPlus, Version 22.2.0-aa78da9668, YMD=2023.06.21 17:25,\n   ** Warning ** Timestep: Requested number (1) is less than the suggested minimum of 4.\n   **   ~~~   ** Please see entry for Timestep in Input/Output Reference for discussion of considerations.\n   ************* Beginning Zone Sizing Calculations\n   ** Warning ** ProcessScheduleInput: DecodeHHMMField, Invalid \"until\" field value is not a multiple of the minutes for each timestep: 00:10\n   **   ~~~   ** Other errors may result. Occurred in Day Schedule=ZONE OFFICE WHOLEBUILDING - SM OFFICE 2  - STORY GROUND PSZ-AC OCC SCH DEFAULT\n   ** Warning ** ProcessScheduleInput: DecodeHHMMField, Invalid \"until\" field value is not a multiple of the minutes for each timestep: 21:30\n   **   ~~~   ** Other errors may result. Occurred in Day Schedule=ZONE OFFICE WHOLEBUILDING - SM OFFICE 2  - STORY GROUND PSZ-AC OCC SCH DEFAULT\n   ** Warning ** ProcessScheduleInput: DecodeHHMMField, Invalid \"until\" field value is not a multiple of the minutes for each timestep: 07:20\n   **   ~~~   ** Other errors may result. Occurred in Day Schedule=ZONE OFFICE WHOLEBUILDING - SM OFFICE 2  - STORY GROUND PSZ-AC OCC SCH SATURDAY\n   ** Warning ** ProcessScheduleInput: DecodeHHMMField, Invalid \"until\" field value is not a multiple of the minutes for each timestep: 12:59\n   **   ~~~   ** Other errors may result. Occurred in Day Schedule=ZONE OFFICE WHOLEBUILDING - SM OFFICE 2  - STORY GROUND PSZ-AC OCC SCH SATURDAY\n   ** Warning ** ProcessScheduleInput: Schedule:Constant=\"TEMPORARY PIPE INDOOR AMBIENT TEMP 67.3F\", Blank Schedule Type Limits Name input -- will not be validated.\n   ** Warning ** ProcessScheduleInput: Schedule:Constant=\"ALWAYS ON CONTINUOUS\", Blank Schedule Type Limits Name input -- will not be validated.\n   ** Warning ** CheckUsedConstructions: There are 13 nominally unused constructions in input.\n   **   ~~~   ** For explicit details on each unused construction, use Output:Diagnostics,DisplayExtraWarnings;\n   ** Severe  ** WaterHeater:Mixed = 40GAL ELECTRICITY WATER HEATER - 40KBTU/HR 1.0 THERM EFF 1.0 THERM EFF:  Ambient Temperature Zone not found = \n   ************* Beginning System Sizing Calculations\n   ** Warning ** AirLoopHVAC:UnitarySystem = ZONE OFFICE WHOLEBUILDING - SM OFFICE 2  - STORY GROUND PSZ-AC UNITARY AC\n   **   ~~~   ** Method used to determine the cooling supply air flow rate is not specified when cooling coil is present.\n   ** Warning ** AirLoopHVAC:UnitarySystem = ZONE OFFICE WHOLEBUILDING - SM OFFICE 2  - STORY GROUND PSZ-AC UNITARY AC\n   **   ~~~   ** Method used to determine the heating supply air flow rate is not specified when heating coil is present.\n   ************* Beginning Plant Sizing Calculations\n   ** Warning ** GetOAControllerInputs: Controller:MechanicalVentilation=\"CONTROLLER MECHANICAL VENTILATION 1\n   **   ~~~   ** Cannot locate a matching DesignSpecification:ZoneAirDistribution object for Zone=\"ZONE OFFICE WHOLEBUILDING - SM OFFICE 2  - STORY GROUND\".\n   **   ~~~   ** Using default zone air distribution effectiveness of 1.0 for heating and cooling.\n   ** Warning ** Water heater = 40GAL NATURALGAS WATER HEATER - 1KBTU/HR 0.78 THERM EFF:  Recovery Efficiency and Energy Factor could not be calculated during the test for standard ratings\n   **   ~~~   ** Setpoint was never recovered and/or heater never turned on\n   ** Warning ** SizePlantLoop: Calculated Plant Sizing Design Volume Flow Rate=[0.00] is too small. Set to 0.0\n   **   ~~~   ** ..occurs for PlantLoop=MAIN SERVICE WATER LOOP\n   ** Warning ** SizePump: Calculated Pump Nominal Volume Flow Rate=[0.00] is too small. Set to 0.0\n   **   ~~~   ** ..occurs for Pump=MAIN SERVICE WATER LOOP WATER MAINS PRESSURE DRIVEN\n   ** Warning ** Check input. Pump nominal power or motor efficiency is set to 0, for pump=MAIN SERVICE WATER LOOP WATER MAINS PRESSURE DRIVEN\n   ** Warning ** Check input. Pump nominal flow rate is set or calculated = 0, for pump=MAIN SERVICE WATER LOOP WATER MAINS PRESSURE DRIVEN\n   ** Warning ** Output:Meter: invalid Key Name=\"DISTRICTCOOLING:FACILITY\" - not found.\n   ** Warning ** Output:Meter: invalid Key Name=\"DISTRICTHEATING:FACILITY\" - not found.\n   ** Warning ** Output:Meter:MeterFileOnly requested for \"Electricity:Facility\" (TimeStep), already on \"Output:Meter\". Will report to both eplusout.eso and eplusout.mtr\n   ************* Testing Individual Branch Integrity\n   ************* All Branches passed integrity testing\n   ************* Testing Individual Supply Air Path Integrity\n   ************* All Supply Air Paths passed integrity testing\n   ************* Testing Individual Return Air Path Integrity\n   ************* All Return Air Paths passed integrity testing\n   ************* No node connection errors were found.\n   ************* Beginning Simulation\n   ** Warning ** In Output:Table:Monthly 'BUILDING ENERGY PERFORMANCE - ELECTRICITY' invalid Variable or Meter Name 'EXTERIOREQUIPMENT:ELECTRICITY'\n   ** Warning ** In Output:Table:Monthly 'BUILDING ENERGY PERFORMANCE - ELECTRICITY' invalid Variable or Meter Name 'HEATREJECTION:ELECTRICITY'\n   ** Warning ** In Output:Table:Monthly 'BUILDING ENERGY PERFORMANCE - ELECTRICITY' invalid Variable or Meter Name 'HUMIDIFIER:ELECTRICITY'\n   ** Warning ** In Output:Table:Monthly 'BUILDING ENERGY PERFORMANCE - ELECTRICITY' invalid Variable or Meter Name 'HEATRECOVERY:ELECTRICITY'\n   ** Warning ** In Output:Table:Monthly 'BUILDING ENERGY PERFORMANCE - ELECTRICITY' invalid Variable or Meter Name 'COGENERATION:ELECTRICITY'\n   ** Warning ** In Output:Table:Monthly 'BUILDING ENERGY PERFORMANCE - ELECTRICITY' invalid Variable or Meter Name 'REFRIGERATION:ELECTRICITY'\n   ** Warning ** In Output:Table:Monthly 'BUILDING ENERGY PERFORMANCE - NATURAL GAS' invalid Variable or Meter Name 'INTERIOREQUIPMENT:NATURALGAS'\n   ** Warning ** In Output:Table:Monthly 'BUILDING ENERGY PERFORMANCE - NATURAL GAS' invalid Variable or Meter Name 'EXTERIOREQUIPMENT:NATURALGAS'\n   ** Warning ** In Output:Table:Monthly 'BUILDING ENERGY PERFORMANCE - NATURAL GAS' invalid Variable or Meter Name 'COOLING:NATURALGAS'\n   ** Warning ** In Output:Table:Monthly 'BUILDING ENERGY PERFORMANCE - NATURAL GAS' invalid Variable or Meter Name 'COGENERATION:NATURALGAS'\n   ** Warning ** In Output:Table:Monthly 'BUILDING ENERGY PERFORMANCE - DISTRICT HEATING' invalid Variable or Meter Name 'INTERIORLIGHTS:DISTRICTHEATING'\n   ** Warning ** In Output:Table:Monthly 'BUILDING ENERGY PERFORMANCE - DISTRICT HEATING' invalid Variable or Meter Name 'EXTERIORLIGHTS:DISTRICTHEATING'\n   ** Warning ** In Output:Table:Monthly 'BUILDING ENERGY PERFORMANCE - DISTRICT HEATING' invalid Variable or Meter Name 'INTERIOREQUIPMENT:DISTRICTHEATING'\n   ** Warning ** In Output:Table:Monthly 'BUILDING ENERGY PERFORMANCE - DISTRICT HEATING' invalid Variable or Meter Name 'EXTERIOREQUIPMENT:DISTRICTHEATING'\n   ** Warning ** In Output:Table:Monthly 'BUILDING ENERGY PERFORMANCE - DISTRICT HEATING' invalid Variable or Meter Name 'FANS:DISTRICTHEATING'\n   ** Warning ** In Output:Table:Monthly 'BUILDING ENERGY PERFORMANCE - DISTRICT HEATING' invalid Variable or Meter Name 'PUMPS:DISTRICTHEATING'\n   ** Warning ** In Output:Table:Monthly 'BUILDING ENERGY PERFORMANCE - DISTRICT HEATING' invalid Variable or Meter Name 'HEATING:DISTRICTHEATING'\n   ** Warning ** In Output:Table:Monthly 'BUILDING ENERGY PERFORMANCE - DISTRICT HEATING' invalid Variable or Meter Name 'COOLING:DISTRICTHEATING'\n   ** Warning ** In Output:Table:Monthly 'BUILDING ENERGY PERFORMANCE - DISTRICT HEATING' invalid Variable or Meter Name 'HEATREJECTION:DISTRICTHEATING'\n   ** Warning ** In Output:Table:Monthly 'BUILDING ENERGY PERFORMANCE - DISTRICT HEATING' invalid Variable or Meter Name 'HUMIDIFIER:DISTRICTHEATING'\n   ** Warning ** In Output:Table:Monthly 'BUILDING ENERGY PERFORMANCE - DISTRICT HEATING' invalid Variable or Meter Name 'HEATRECOVERY:DISTRICTHEATING'\n   ** Warning ** In Output:Table:Monthly 'BUILDING ENERGY PERFORMANCE - DISTRICT HEATING' invalid Variable or Meter Name 'WATERSYSTEMS:DISTRICTHEATING'\n   ** Warning ** In Output:Table:Monthly 'BUILDING ENERGY PERFORMANCE - DISTRICT HEATING' invalid Variable or Meter Name 'COGENERATION:DISTRICTHEATING'\n   ** Warning ** In Output:Table:Monthly 'BUILDING ENERGY PERFORMANCE - DISTRICT COOLING' invalid Variable or Meter Name 'INTERIORLIGHTS:DISTRICTCOOLING'\n   ** Warning ** In Output:Table:Monthly 'BUILDING ENERGY PERFORMANCE - DISTRICT COOLING' invalid Variable or Meter Name 'EXTERIORLIGHTS:DISTRICTCOOLING'\n   ** Warning ** In Output:Table:Monthly 'BUILDING ENERGY PERFORMANCE - DISTRICT COOLING' invalid Variable or Meter Name 'INTERIOREQUIPMENT:DISTRICTCOOLING'\n   ** Warning ** In Output:Table:Monthly 'BUILDING ENERGY PERFORMANCE - DISTRICT COOLING' invalid Variable or Meter Name 'EXTERIOREQUIPMENT:DISTRICTCOOLING'\n   ** Warning ** In Output:Table:Monthly 'BUILDING ENERGY PERFORMANCE - DISTRICT COOLING' invalid Variable or Meter Name 'FANS:DISTRICTCOOLING'\n   ** Warning ** In Output:Table:Monthly 'BUILDING ENERGY PERFORMANCE - DISTRICT COOLING' invalid Variable or Meter Name 'PUMPS:DISTRICTCOOLING'\n   ** Warning ** In Output:Table:Monthly 'BUILDING ENERGY PERFORMANCE - DISTRICT COOLING' invalid Variable or Meter Name 'HEATING:DISTRICTCOOLING'\n   ** Warning ** In Output:Table:Monthly 'BUILDING ENERGY PERFORMANCE - DISTRICT COOLING' invalid Variable or Meter Name 'COOLING:DISTRICTCOOLING'\n   ** Warning ** In Output:Table:Monthly 'BUILDING ENERGY PERFORMANCE - DISTRICT COOLING' invalid Variable or Meter Name 'HEATREJECTION:DISTRICTCOOLING'\n   ** Warning ** In Output:Table:Monthly 'BUILDING ENERGY PERFORMANCE - DISTRICT COOLING' invalid Variable or Meter Name 'HUMIDIFIER:DISTRICTCOOLING'\n   ** Warning ** In Output:Table:Monthly 'BUILDING ENERGY PERFORMANCE - DISTRICT COOLING' invalid Variable or Meter Name 'HEATRECOVERY:DISTRICTCOOLING'\n   ** Warning ** In Output:Table:Monthly 'BUILDING ENERGY PERFORMANCE - DISTRICT COOLING' invalid Variable or Meter Name 'WATERSYSTEMS:DISTRICTCOOLING'\n   ** Warning ** In Output:Table:Monthly 'BUILDING ENERGY PERFORMANCE - DISTRICT COOLING' invalid Variable or Meter Name 'COGENERATION:DISTRICTCOOLING'\n   ** Warning ** In Output:Table:Monthly 'BUILDING ENERGY PERFORMANCE - ELECTRICITY PEAK DEMAND' invalid Variable or Meter Name 'EXTERIOREQUIPMENT:ELECTRICITY'\n   ** Warning ** In Output:Table:Monthly 'BUILDING ENERGY PERFORMANCE - ELECTRICITY PEAK DEMAND' invalid Variable or Meter Name 'HEATREJECTION:ELECTRICITY'\n   ** Warning ** In Output:Table:Monthly 'BUILDING ENERGY PERFORMANCE - ELECTRICITY PEAK DEMAND' invalid Variable or Meter Name 'HUMIDIFIER:ELECTRICITY'\n   ** Warning ** In Output:Table:Monthly 'BUILDING ENERGY PERFORMANCE - ELECTRICITY PEAK DEMAND' invalid Variable or Meter Name 'HEATRECOVERY:ELECTRICITY'\n   ** Warning ** In Output:Table:Monthly 'BUILDING ENERGY PERFORMANCE - ELECTRICITY PEAK DEMAND' invalid Variable or Meter Name 'COGENERATION:ELECTRICITY'\n   ** Warning ** In Output:Table:Monthly 'BUILDING ENERGY PERFORMANCE - NATURAL GAS PEAK DEMAND' invalid Variable or Meter Name 'INTERIOREQUIPMENT:NATURALGAS'\n   ** Warning ** In Output:Table:Monthly 'BUILDING ENERGY PERFORMANCE - NATURAL GAS PEAK DEMAND' invalid Variable or Meter Name 'EXTERIOREQUIPMENT:NATURALGAS'\n   ** Warning ** In Output:Table:Monthly 'BUILDING ENERGY PERFORMANCE - NATURAL GAS PEAK DEMAND' invalid Variable or Meter Name 'COOLING:NATURALGAS'\n   ** Warning ** In Output:Table:Monthly 'BUILDING ENERGY PERFORMANCE - NATURAL GAS PEAK DEMAND' invalid Variable or Meter Name 'COGENERATION:NATURALGAS'\n   ** Warning ** In Output:Table:Monthly 'BUILDING ENERGY PERFORMANCE - DISTRICT HEATING PEAK DEMAND' invalid Variable or Meter Name 'DISTRICTHEATING:FACILITY'\n   ** Warning ** In Output:Table:Monthly 'BUILDING ENERGY PERFORMANCE - DISTRICT HEATING PEAK DEMAND' invalid Variable or Meter Name 'INTERIORLIGHTS:DISTRICTHEATING'\n   ** Warning ** In Output:Table:Monthly 'BUILDING ENERGY PERFORMANCE - DISTRICT HEATING PEAK DEMAND' invalid Variable or Meter Name 'EXTERIORLIGHTS:DISTRICTHEATING'\n   ** Warning ** In Output:Table:Monthly 'BUILDING ENERGY PERFORMANCE - DISTRICT HEATING PEAK DEMAND' invalid Variable or Meter Name 'INTERIOREQUIPMENT:DISTRICTHEATING'\n   ** Warning ** In Output:Table:Monthly 'BUILDING ENERGY PERFORMANCE - DISTRICT HEATING PEAK DEMAND' invalid Variable or Meter Name 'EXTERIOREQUIPMENT:DISTRICTHEATING'\n   ** Warning ** In Output:Table:Monthly 'BUILDING ENERGY PERFORMANCE - DISTRICT HEATING PEAK DEMAND' invalid Variable or Meter Name 'FANS:DISTRICTHEATING'\n   ** Warning ** In Output:Table:Monthly 'BUILDING ENERGY PERFORMANCE - DISTRICT HEATING PEAK DEMAND' invalid Variable or Meter Name 'PUMPS:DISTRICTHEATING'\n   ** Warning ** In Output:Table:Monthly 'BUILDING ENERGY PERFORMANCE - DISTRICT HEATING PEAK DEMAND' invalid Variable or Meter Name 'HEATING:DISTRICTHEATING'\n   ** Warning ** In Output:Table:Monthly 'BUILDING ENERGY PERFORMANCE - DISTRICT HEATING PEAK DEMAND' invalid Variable or Meter Name 'COOLING:DISTRICTHEATING'\n   ** Warning ** In Output:Table:Monthly 'BUILDING ENERGY PERFORMANCE - DISTRICT HEATING PEAK DEMAND' invalid Variable or Meter Name 'HEATREJECTION:DISTRICTHEATING'\n   ** Warning ** In Output:Table:Monthly 'BUILDING ENERGY PERFORMANCE - DISTRICT HEATING PEAK DEMAND' invalid Variable or Meter Name 'HUMIDIFIER:DISTRICTHEATING'\n   ** Warning ** In Output:Table:Monthly 'BUILDING ENERGY PERFORMANCE - DISTRICT HEATING PEAK DEMAND' invalid Variable or Meter Name 'HEATRECOVERY:DISTRICTHEATING'\n   ** Warning ** In Output:Table:Monthly 'BUILDING ENERGY PERFORMANCE - DISTRICT HEATING PEAK DEMAND' invalid Variable or Meter Name 'WATERSYSTEMS:DISTRICTHEATING'\n   ** Warning ** In Output:Table:Monthly 'BUILDING ENERGY PERFORMANCE - DISTRICT HEATING PEAK DEMAND' invalid Variable or Meter Name 'COGENERATION:DISTRICTHEATING'\n   ** Warning ** In Output:Table:Monthly 'BUILDING ENERGY PERFORMANCE - DISTRICT COOLING PEAK DEMAND' invalid Variable or Meter Name 'DISTRICTCOOLING:FACILITY'\n   ** Warning ** In Output:Table:Monthly 'BUILDING ENERGY PERFORMANCE - DISTRICT COOLING PEAK DEMAND' invalid Variable or Meter Name 'INTERIORLIGHTS:DISTRICTCOOLING'\n   ** Warning ** In Output:Table:Monthly 'BUILDING ENERGY PERFORMANCE - DISTRICT COOLING PEAK DEMAND' invalid Variable or Meter Name 'EXTERIORLIGHTS:DISTRICTCOOLING'\n   ** Warning ** In Output:Table:Monthly 'BUILDING ENERGY PERFORMANCE - DISTRICT COOLING PEAK DEMAND' invalid Variable or Meter Name 'INTERIOREQUIPMENT:DISTRICTCOOLING'\n   ** Warning ** In Output:Table:Monthly 'BUILDING ENERGY PERFORMANCE - DISTRICT COOLING PEAK DEMAND' invalid Variable or Meter Name 'EXTERIOREQUIPMENT:DISTRICTCOOLING'\n   ** Warning ** In Output:Table:Monthly 'BUILDING ENERGY PERFORMANCE - DISTRICT COOLING PEAK DEMAND' invalid Variable or Meter Name 'FANS:DISTRICTCOOLING'\n   ** Warning ** In Output:Table:Monthly 'BUILDING ENERGY PERFORMANCE - DISTRICT COOLING PEAK DEMAND' invalid Variable or Meter Name 'PUMPS:DISTRICTCOOLING'\n   ** Warning ** In Output:Table:Monthly 'BUILDING ENERGY PERFORMANCE - DISTRICT COOLING PEAK DEMAND' invalid Variable or Meter Name 'HEATING:DISTRICTCOOLING'\n   ** Warning ** In Output:Table:Monthly 'BUILDING ENERGY PERFORMANCE - DISTRICT COOLING PEAK DEMAND' invalid Variable or Meter Name 'COOLING:DISTRICTCOOLING'\n   ** Warning ** In Output:Table:Monthly 'BUILDING ENERGY PERFORMANCE - DISTRICT COOLING PEAK DEMAND' invalid Variable or Meter Name 'HEATREJECTION:DISTRICTCOOLING'\n   ** Warning ** In Output:Table:Monthly 'BUILDING ENERGY PERFORMANCE - DISTRICT COOLING PEAK DEMAND' invalid Variable or Meter Name 'HUMIDIFIER:DISTRICTCOOLING'\n   ** Warning ** In Output:Table:Monthly 'BUILDING ENERGY PERFORMANCE - DISTRICT COOLING PEAK DEMAND' invalid Variable or Meter Name 'HEATRECOVERY:DISTRICTCOOLING'\n   ** Warning ** In Output:Table:Monthly 'BUILDING ENERGY PERFORMANCE - DISTRICT COOLING PEAK DEMAND' invalid Variable or Meter Name 'WATERSYSTEMS:DISTRICTCOOLING'\n   ** Warning ** In Output:Table:Monthly 'BUILDING ENERGY PERFORMANCE - DISTRICT COOLING PEAK DEMAND' invalid Variable or Meter Name 'COGENERATION:DISTRICTCOOLING'\n   ** Warning ** Processing Monthly Tabular Reports: Variable names not valid for this simulation\n   **   ~~~   ** ...use Output:Diagnostics,DisplayExtraWarnings; to show more details on individual variables.\n   ** Warning ** CalcEquipmentFlowRates: \"OFFICE WHOLEBUILDING - SM OFFICE 2 - DOE REF 1980-2004 SERVICE WATER USE 0.01GPM AT 140F\" - Target water temperature is greater than the hot water temperature by (40.40 C)\n   **   ~~~   **  Environment=RUN PERIOD 1, at Simulation time=01/02 00:00 - 01:00\n   **   ~~~   ** ...target water temperature     = 60.00 C\n   **   ~~~   ** ...hot water temperature        = 19.60 C\n   **   ~~~   ** ...Target water temperature should be less than or equal to the hot water temperature. Verify temperature setpoints and schedules.\n   ** Warning ** The resource referenced by LifeCycleCost:UsePriceEscalation= \"U.S. AVG  COMMERCIAL-ELECTRICITY\" has no energy cost. \n   **   ~~~   ** ... It is likely that the wrong resource is used. The resource should match the meter used in Utility:Tariff.\n   ** Warning ** The resource referenced by LifeCycleCost:UsePriceEscalation= \"U.S. AVG  COMMERCIAL-DISTILLATE OIL\" has no energy cost. \n   **   ~~~   ** ... It is likely that the wrong resource is used. The resource should match the meter used in Utility:Tariff.\n   ** Warning ** The resource referenced by LifeCycleCost:UsePriceEscalation= \"U.S. AVG  COMMERCIAL-RESIDUAL OIL\" has no energy cost. \n   **   ~~~   ** ... It is likely that the wrong resource is used. The resource should match the meter used in Utility:Tariff.\n   ** Warning ** The resource referenced by LifeCycleCost:UsePriceEscalation= \"U.S. AVG  COMMERCIAL-NATURAL GAS\" has no energy cost. \n   **   ~~~   ** ... It is likely that the wrong resource is used. The resource should match the meter used in Utility:Tariff.\n   ** Warning ** The resource referenced by LifeCycleCost:UsePriceEscalation= \"U.S. AVG  COMMERCIAL-COAL\" has no energy cost. \n   **   ~~~   ** ... It is likely that the wrong resource is used. The resource should match the meter used in Utility:Tariff.\n   ************* Simulation Error Summary *************\n   ************* There are 3 unused schedules in input.\n   ************* There are 7 unused week schedules in input.\n   ************* There are 20 unused day schedules in input.\n   ************* Use Output:Diagnostics,DisplayUnusedSchedules; to see them.\n   *************\n   ************* ===== Recurring Error Summary =====\n   ************* The following recurring error messages occurred.\n   *************\n   *************  ** Warning ** \"OFFICE WHOLEBUILDING - SM OFFICE 2 - DOE REF 1980-2004 SERVICE WATER USE 0.01GPM AT 140F\" - Target water temperature should be less than or equal to the hot water temperature error continues...\n   *************  **   ~~~   **   This error occurred 106903 total times;\n   *************  **   ~~~   **   during Warmup 0 times;\n   *************  **   ~~~   **   during Sizing 0 times.\n   *************  **   ~~~   **   Max=40.4  Min=38.109938\n   *************\n   *************\n   ************* ===== Final Error Summary =====\n   ************* The following error categories occurred.  Consider correcting or noting.\n   ************* Nominally Unused Constructions\n   ************* ..The nominally unused constructions warning is provided to alert you to potential conditions that can cause\n   ************* ..extra time during simulation. Each construction is calculated by the algorithm indicated in the HeatBalanceAlgorithm\n   ************* ..object. You may remove the constructions indicated (when you use the DisplayExtraWarnings option).\n   *************\n   ************* EnergyPlus Warmup Error Summary. During Warmup: 0 Warning; 0 Severe Errors.\n   ************* EnergyPlus Sizing Error Summary. During Sizing: 9 Warning; 1 Severe Errors.\n   ************* EnergyPlus Completed Successfully-- 107002 Warning; 1 Severe Errors; Elapsed Time=00hr 00min  2.75sec\n",
   "file_paths" : 
   [
      "/Users/cbianchi/Documents/GitHub/example_workflow/ERMA_simulations/microgrid/Power_and_Heat_R2_January_9/generated_files",
      "./files",
      "./weather",
      "../../files",
      "../../weather",
      "./"
   ],
   "hash" : "E46DD536",
   "measure_paths" : 
   [
      "/Users/cbianchi/Documents/GitHub/example_workflow/measures"
   ],
   "seed_file" : "Power_and_Heat_R2_January_9.osm",
   "started_at" : "20230621T232533Z",
   "steps" : 
   [
      {
         "arguments" : 
         {
            "otg_date" : "January 9",
            "otg_hr" : "5",
            "otg_len" : "4",
            "outage_type" : "Power and Heat"
         },
         "measure_dir_name" : "set_power_and_heat_off",
         "result" : 
         {
            "completed_at" : "20230621T232534Z",
            "measure_class_name" : "SetPowerAndHeatOff",
            "measure_display_name" : "Set Power and Heat off",
            "measure_name" : "set_power_and_heat_off",
            "measure_taxonomy" : "Whole Building.Whole Building Schedules",
            "measure_type" : "ModelMeasure",
            "measure_uid" : "0ac8dac6-7ee2-4ae7-aee0-f5cabdfe3a82",
            "measure_version_id" : "55370018-4ff7-47f0-8c33-81b9a97a5a4b",
            "measure_version_modified" : "20230529T194808Z",
            "measure_xml_checksum" : "25215CE1",
            "started_at" : "20230621T232534Z",
            "stderr" : "",
            "stdout" : "",
            "step_errors" : [],
            "step_files" : [],
            "step_final_condition" : "A power outage has been added, starting on January 9 at hour 5 and lasting for 4 hours.",
            "step_info" : 
            [
               "Modified the schedule 'Small Office Bldg Equip'.",
               "Modified the schedule 'Office Shared Service Water Loop Piping Air Velocity - 0.67mph'.",
               "Modified the schedule 'Water Heater Ambient Temp Schedule - 70.0f'.",
               "Modified the schedule 'Zone Office WholeBuilding - Sm Office 2  - Story Ground PSZ-AC Occ Sch'.",
               "Modified the schedule 'OfficeSmall Exterior_lighting_schedule_a'.",
               "Modified the schedule 'Fraction Latent - 0.05'.",
               "Modified the schedule 'Mixed Water At Faucet Temp - 140F'.",
               "Modified the schedule 'OfficeSmall Exterior_lighting_schedule_b'.",
               "Modified the schedule 'Building Hours of Operation NonResidential'.",
               "Modified the schedule 'OfficeSmall BLDG_SWH_SCH'.",
               "Modified the schedule 'Small Office Infil Quarter On'.",
               "Modified the schedule 'Service Water Loop Temp - 140F'.",
               "Modified the schedule 'Work Efficiency Schedule'.",
               "Modified the schedule 'Office Bldg Light'.",
               "Modified the schedule 'Fraction Sensible - 0.2'.",
               "Modified the availability schedule for 'Zone Office WholeBuilding - Sm Office 2  - Story Ground PSZ-AC Unitary AC'.",
               "Modified the availability schedule for 'Zone Office WholeBuilding - Sm Office 2  - Story Ground PSZ-AC Unitary AC'.",
               "Modified the schedule 'lighting_interior'.",
               "Modified the schedule 'lighting_exterior'.",
               "Modified the schedule 'lighting_garage'.",
               "Modified the schedule 'lighting_exterior_holiday'.",
               "Modified the schedule 'cooking_range'.",
               "Modified the schedule 'dishwasher'.",
               "Modified the schedule 'dishwasher_power'.",
               "Modified the schedule 'clothes_washer'.",
               "Modified the schedule 'clothes_washer_power'.",
               "Modified the schedule 'clothes_dryer'.",
               "Modified the schedule 'clothes_dryer_exhaust'.",
               "Modified the schedule 'baths'.",
               "Modified the schedule 'showers'.",
               "Modified the schedule 'sinks'.",
               "Modified the schedule 'ceiling_fan'.",
               "Modified the schedule 'plug_loads'.",
               "Modified the schedule 'plug_loads_vehicle'.",
               "Modified the schedule 'plug_loads_well_pump'.",
               "Modified the schedule 'fuel_loads_grill'.",
               "Modified the schedule 'fuel_loads_lighting'.",
               "Modified the schedule 'fuel_loads_fireplace'."
            ],
            "step_result" : "Success",
            "step_values" : 
            [
               {
                  "name" : "otg_date",
                  "value" : "January 9"
               },
               {
                  "name" : "otg_hr",
                  "value" : 5
               },
               {
                  "name" : "otg_len",
                  "value" : 4
               },
               {
                  "name" : "outage_type",
                  "value" : "Power and Heat"
               }
            ],
            "step_warnings" : []
         }
      },
      {
         "arguments" : 
         {
            "key_value" : "*",
            "reporting_frequency" : "hourly",
            "variable_name" : "Zone Mean Air Temperature"
         },
         "measure_dir_name" : "AddOutputVariable",
         "result" : 
         {
            "completed_at" : "20230621T232534Z",
            "measure_class_name" : "AddOutputVariable",
            "measure_display_name" : "AddOutputVariable",
            "measure_name" : "add_output_variable",
            "measure_taxonomy" : "Reporting.QAQC",
            "measure_type" : "ModelMeasure",
            "measure_uid" : "2a058afb-e349-49ae-a4bf-2c56a42b4352",
            "measure_version_id" : "b38027ec-5a67-46d2-959d-76fe29e9ff93",
            "measure_version_modified" : "20180726T200322Z",
            "measure_xml_checksum" : "0CA4D54C",
            "started_at" : "20230621T232534Z",
            "stderr" : "",
            "stdout" : "",
            "step_errors" : [],
            "step_files" : [],
            "step_final_condition" : "The model finished with 1 output variable objects.",
            "step_info" : 
            [
               "Adding output variable for Zone Mean Air Temperature reporting hourly.",
               "Key value for variable is *."
            ],
            "step_initial_condition" : "The model started with 0 output variable objects.",
            "step_result" : "Success",
            "step_values" : 
            [
               {
                  "name" : "variable_name",
                  "value" : "Zone Mean Air Temperature"
               },
               {
                  "name" : "reporting_frequency",
                  "value" : "hourly"
               },
               {
                  "name" : "key_value",
                  "value" : "*"
               }
            ],
            "step_warnings" : []
         }
      },
      {
         "arguments" : 
         {
            "key_value" : "*",
            "reporting_frequency" : "hourly",
            "variable_name" : "Zone Operative Temperature"
         },
         "measure_dir_name" : "AddOutputVariable",
         "result" : 
         {
            "completed_at" : "20230621T232534Z",
            "measure_class_name" : "AddOutputVariable",
            "measure_display_name" : "AddOutputVariable",
            "measure_name" : "add_output_variable",
            "measure_taxonomy" : "Reporting.QAQC",
            "measure_type" : "ModelMeasure",
            "measure_uid" : "2a058afb-e349-49ae-a4bf-2c56a42b4352",
            "measure_version_id" : "b38027ec-5a67-46d2-959d-76fe29e9ff93",
            "measure_version_modified" : "20180726T200322Z",
            "measure_xml_checksum" : "0CA4D54C",
            "started_at" : "20230621T232534Z",
            "stderr" : "",
            "stdout" : "",
            "step_errors" : [],
            "step_files" : [],
            "step_final_condition" : "The model finished with 2 output variable objects.",
            "step_info" : 
            [
               "Adding output variable for Zone Operative Temperature reporting hourly.",
               "Key value for variable is *."
            ],
            "step_initial_condition" : "The model started with 1 output variable objects.",
            "step_result" : "Success",
            "step_values" : 
            [
               {
                  "name" : "variable_name",
                  "value" : "Zone Operative Temperature"
               },
               {
                  "name" : "reporting_frequency",
                  "value" : "hourly"
               },
               {
                  "name" : "key_value",
                  "value" : "*"
               }
            ],
            "step_warnings" : []
         }
      },
      {
         "arguments" : 
         {
            "key_value" : "*",
            "reporting_frequency" : "hourly",
            "variable_name" : "Zone Thermal Comfort Fanger Model PMV"
         },
         "measure_dir_name" : "AddOutputVariable",
         "result" : 
         {
            "completed_at" : "20230621T232534Z",
            "measure_class_name" : "AddOutputVariable",
            "measure_display_name" : "AddOutputVariable",
            "measure_name" : "add_output_variable",
            "measure_taxonomy" : "Reporting.QAQC",
            "measure_type" : "ModelMeasure",
            "measure_uid" : "2a058afb-e349-49ae-a4bf-2c56a42b4352",
            "measure_version_id" : "b38027ec-5a67-46d2-959d-76fe29e9ff93",
            "measure_version_modified" : "20180726T200322Z",
            "measure_xml_checksum" : "0CA4D54C",
            "started_at" : "20230621T232534Z",
            "stderr" : "",
            "stdout" : "",
            "step_errors" : [],
            "step_files" : [],
            "step_final_condition" : "The model finished with 3 output variable objects.",
            "step_info" : 
            [
               "Adding output variable for Zone Thermal Comfort Fanger Model PMV reporting hourly.",
               "Key value for variable is *."
            ],
            "step_initial_condition" : "The model started with 2 output variable objects.",
            "step_result" : "Success",
            "step_values" : 
            [
               {
                  "name" : "variable_name",
                  "value" : "Zone Thermal Comfort Fanger Model PMV"
               },
               {
                  "name" : "reporting_frequency",
                  "value" : "hourly"
               },
               {
                  "name" : "key_value",
                  "value" : "*"
               }
            ],
            "step_warnings" : []
         }
      },
      {
         "arguments" : 
         {
            "key_value" : "*",
            "reporting_frequency" : "hourly",
            "variable_name" : "Zone Thermal Comfort Fanger Model PPD"
         },
         "measure_dir_name" : "AddOutputVariable",
         "result" : 
         {
            "completed_at" : "20230621T232534Z",
            "measure_class_name" : "AddOutputVariable",
            "measure_display_name" : "AddOutputVariable",
            "measure_name" : "add_output_variable",
            "measure_taxonomy" : "Reporting.QAQC",
            "measure_type" : "ModelMeasure",
            "measure_uid" : "2a058afb-e349-49ae-a4bf-2c56a42b4352",
            "measure_version_id" : "b38027ec-5a67-46d2-959d-76fe29e9ff93",
            "measure_version_modified" : "20180726T200322Z",
            "measure_xml_checksum" : "0CA4D54C",
            "started_at" : "20230621T232534Z",
            "stderr" : "",
            "stdout" : "",
            "step_errors" : [],
            "step_files" : [],
            "step_final_condition" : "The model finished with 4 output variable objects.",
            "step_info" : 
            [
               "Adding output variable for Zone Thermal Comfort Fanger Model PPD reporting hourly.",
               "Key value for variable is *."
            ],
            "step_initial_condition" : "The model started with 3 output variable objects.",
            "step_result" : "Success",
            "step_values" : 
            [
               {
                  "name" : "variable_name",
                  "value" : "Zone Thermal Comfort Fanger Model PPD"
               },
               {
                  "name" : "reporting_frequency",
                  "value" : "hourly"
               },
               {
                  "name" : "key_value",
                  "value" : "*"
               }
            ],
            "step_warnings" : []
         }
      }
   ],
   "updated_at" : "20230621T232538Z",
   "weather_file" : "/Users/cbianchi/Documents/GitHub/example_workflow/Kodiak_Airport_703500_TMY3.epw"
}