Program Version,EnergyPlus, Version 22.2.0-aa78da9668, YMD=2023.02.28 19:00
! <Version>, Version ID
 Version, 22.2
! <Timesteps per Hour>, #TimeSteps, Minutes per TimeStep {minutes}
 Timesteps per Hour,  6, 10
! <System Convergence Limits>, Minimum System TimeStep {minutes}, Max HVAC Iterations, Minimum Plant Iterations, Maximum Plant Iterations
 System Convergence Limits, 1, 20, 2, 8
! <Simulation Control>, Do Zone Sizing, Do System Sizing, Do Plant Sizing, Do Design Days, Do Weather Simulation, Do HVAC Sizing Simulation
 Simulation Control, Yes, Yes, Yes, No, Yes, No
! <Performance Precision Tradeoffs>, Use Coil Direct Simulation, Zone Radiant Exchange Algorithm, Override Mode, Number of Timestep In Hour, Force Euler Method, Minimum Number of Warmup Days, Force Suppress All Begin Environment Resets, Minimum System Timestep, MaxZoneTempDiff, MaxAllowedDelTemp
 Performance Precision Tradeoffs, No, ScriptF, Normal, 6, No, 1, No, 1.0, 0.300, 2.0000E-003
! <Output Reporting Tolerances>, Tolerance for Time Heating Setpoint Not Met, Tolerance for Zone Cooling Setpoint Not Met Time
 Output Reporting Tolerances, 0.556, 0.556, 
! <Site:GroundTemperature:BuildingSurface>,Jan{C},Feb{C},Mar{C},Apr{C},May{C},Jun{C},Jul{C},Aug{C},Sep{C},Oct{C},Nov{C},Dec{C}
 Site:GroundTemperature:BuildingSurface,  18.00,  18.00,  18.00,  18.00,  18.00,  18.00,  18.00,  18.00,  18.00,  18.00,  18.00,  18.00
! <Site:GroundTemperature:FCfactorMethod>,Jan{C},Feb{C},Mar{C},Apr{C},May{C},Jun{C},Jul{C},Aug{C},Sep{C},Oct{C},Nov{C},Dec{C}
 Site:GroundTemperature:FCfactorMethod,  -3.10, -17.70, -19.30, -17.60, -15.40, -10.30,   0.70,  10.60,  16.00,  16.90,  14.20,   6.70
! <Site:GroundTemperature:Shallow>,Jan{C},Feb{C},Mar{C},Apr{C},May{C},Jun{C},Jul{C},Aug{C},Sep{C},Oct{C},Nov{C},Dec{C}
 Site:GroundTemperature:Shallow,  13.00,  13.00,  13.00,  13.00,  13.00,  13.00,  13.00,  13.00,  13.00,  13.00,  13.00,  13.00
! <Site:GroundTemperature:Deep>,Jan{C},Feb{C},Mar{C},Apr{C},May{C},Jun{C},Jul{C},Aug{C},Sep{C},Oct{C},Nov{C},Dec{C}
 Site:GroundTemperature:Deep,  16.00,  16.00,  16.00,  16.00,  16.00,  16.00,  16.00,  16.00,  16.00,  16.00,  16.00,  16.00
! <Site:GroundReflectance>,Jan{dimensionless},Feb{dimensionless},Mar{dimensionless},Apr{dimensionless},May{dimensionless},Jun{dimensionless},Jul{dimensionless},Aug{dimensionless},Sep{dimensionless},Oct{dimensionless},Nov{dimensionless},Dec{dimensionless}
 Site:GroundReflectance,  0.20,  0.20,  0.20,  0.20,  0.20,  0.20,  0.20,  0.20,  0.20,  0.20,  0.20,  0.20
! <Site:GroundReflectance:SnowModifier>, Normal, Daylighting {dimensionless}
 Site:GroundReflectance:SnowModifier,   1.000,   1.000
! <Site:GroundReflectance:Snow>,Jan{dimensionless},Feb{dimensionless},Mar{dimensionless},Apr{dimensionless},May{dimensionless},Jun{dimensionless},Jul{dimensionless},Aug{dimensionless},Sep{dimensionless},Oct{dimensionless},Nov{dimensionless},Dec{dimensionless}
 Site:GroundReflectance:Snow,  0.20,  0.20,  0.20,  0.20,  0.20,  0.20,  0.20,  0.20,  0.20,  0.20,  0.20,  0.20
! <Site:GroundReflectance:Snow:Daylighting>,Jan{dimensionless},Feb{dimensionless},Mar{dimensionless},Apr{dimensionless},May{dimensionless},Jun{dimensionless},Jul{dimensionless},Aug{dimensionless},Sep{dimensionless},Oct{dimensionless},Nov{dimensionless},Dec{dimensionless}
 Site:GroundReflectance:Snow:Daylighting,  0.20,  0.20,  0.20,  0.20,  0.20,  0.20,  0.20,  0.20,  0.20,  0.20,  0.20,  0.20
! <Environment:Weather Station>,Wind Sensor Height Above Ground {m},Wind Speed Profile Exponent {},Wind Speed Profile Boundary Layer Thickness {m},Air Temperature Sensor Height Above Ground {m},Wind Speed Modifier Coefficient-Internal,Temperature Modifier Coefficient-Internal
Environment:Weather Station,10.000,0.140,270.000,1.500,1.586,9.750E-003
! <Site:Location>, Location Name, Latitude {N+/S- Deg}, Longitude {E+/W- Deg},  Time Zone Number {GMT+/-}, Elevation {m},  Standard Pressure at Elevation {Pa}, Standard RhoAir at Elevation
Site:Location,Kodiak AK USA customized weather file WMO#=703500,57.75,-152.49,-9.00,34.00,100917,1.1995
! <Site Water Mains Temperature Information>,Calculation Method{},Water Mains Temperature Schedule Name{},Annual Average Outdoor Air Temperature{C},Maximum Difference In Monthly Average Outdoor Air Temperatures{deltaC},Fixed Default Water Mains Temperature{C}
Site Water Mains Temperature Information,Correlation,NA,-1.53,36.20,NA
! <Building Information>, Building Name,North Axis {deg},Terrain,  Loads Convergence Tolerance Value,Temperature Convergence Tolerance Value,  Solar Distribution,Maximum Number of Warmup Days,Minimum Number of Warmup Days
 Building Information,90.1-2016|MediumOffice,0.000,City,4.00000E-002,0.20000,FullInteriorAndExterior,25,6
! <Inside Convection Algorithm>, Algorithm {Simple | TARP | CeilingDiffuser | AdaptiveConvectionAlgorithm}
Inside Convection Algorithm,TARP
! <Outside Convection Algorithm>, Algorithm {SimpleCombined | TARP | MoWitt | DOE-2 | AdaptiveConvectionAlgorithm}
Outside Convection Algorithm,TARP
! <Sky Radiance Distribution>, Value {Anisotropic}
Sky Radiance Distribution,Anisotropic
! <Zone Air Solution Algorithm>, Value {ThirdOrderBackwardDifference | AnalyticalSolution | EulerMethod}
 Zone Air Solution Algorithm, ThirdOrderBackwardDifference
! <Zone Air Carbon Dioxide Balance Simulation>, Simulation {Yes/No}, Carbon Dioxide Concentration
 Zone Air Carbon Dioxide Balance Simulation, No,N/A
! <Zone Air Generic Contaminant Balance Simulation>, Simulation {Yes/No}, Generic Contaminant Concentration
 Zone Air Generic Contaminant Balance Simulation, No,N/A
! <Zone Air Mass Flow Balance Simulation>, Enforce Mass Balance, Adjust Zone Mixing and Return {AdjustMixingOnly | AdjustReturnOnly | AdjustMixingThenReturn | AdjustReturnThenMixing | None}, Adjust Zone Infiltration {AddInfiltration | AdjustInfiltration | None}, Infiltration Zones {MixingSourceZonesOnly | AllZones}
 Zone Air Mass Flow Balance Simulation, No,N/A,N/A,N/A
! <HVACSystemRootFindingAlgorithm>, Value {RegulaFalsi | Bisection | BisectionThenRegulaFalsi | RegulaFalsiThenBisection}
 HVACSystemRootFindingAlgorithm, RegulaFalsi
! <Environment:Site Atmospheric Variation>,Wind Speed Profile Exponent {},Wind Speed Profile Boundary Layer Thickness {m},Air Temperature Gradient Coefficient {K/m}
Environment:Site Atmospheric Variation,0.330,460.000,6.500000E-003
! <Surface Geometry>,Starting Corner,Vertex Input Direction,Coordinate System,Daylight Reference Point Coordinate System,Rectangular (Simple) Surface Coordinate System
 Surface Geometry,UpperLeftCorner,Counterclockwise,RelativeCoordinateSystem,RelativeCoordinateSystem,RelativeToZoneOrigin
! <Surface Heat Transfer Algorithm>, Value {CTF - ConductionTransferFunction | EMPD - MoisturePenetrationDepthConductionTransferFunction | CondFD - ConductionFiniteDifference | HAMT - CombinedHeatAndMoistureFiniteElement} - Description,Inside Surface Max Temperature Limit{C}, Surface Convection Coefficient Lower Limit {W/m2-K}, Surface Convection Coefficient Upper Limit {W/m2-K}
Surface Heat Transfer Algorithm, CTF - ConductionTransferFunction,200,0.10,1000.0
! <Shading Summary>, Number of Fixed Detached Shades, Number of Building Detached Shades, Number of Attached Shades
 Shading Summary,0,0,0
! <Zone Summary>, Number of Zones, Number of Zone Surfaces, Number of SubSurfaces
 Zone Summary,18,150,24
! <Zone Information>,Zone Name,North Axis {deg},Origin X-Coordinate {m},Origin Y-Coordinate {m},Origin Z-Coordinate {m},Centroid X-Coordinate {m},Centroid Y-Coordinate {m},Centroid Z-Coordinate {m},Type,Zone Multiplier,Zone List Multiplier,Minimum X {m},Maximum X {m},Minimum Y {m},Maximum Y {m},Minimum Z {m},Maximum Z {m},Ceiling Height {m},Volume {m3},Zone Inside Convection Algorithm {Simple-Detailed-CeilingDiffuser-TrombeWall},Zone Outside Convection Algorithm {Simple-Detailed-Tarp-MoWitt-DOE-2-BLAST}, Floor Area {m2},Exterior Gross Wall Area {m2},Exterior Net Wall Area {m2},Exterior Window Area {m2}, Number of Surfaces, Number of SubSurfaces, Number of Shading SubSurfaces,  Part of Total Building Area
 Zone Information, ZONE OFFICE WHOLEBUILDING - MD OFFICE A  - STORY GROUND,0.0,-7.47,-8.03,0.00,-8.81E-015,-5.74,3.96,1,1,1,-7.47,7.47,-8.03,-3.45,0.00,7.92,7.92,541.07,TARP,TARP,68.27,118.34,100.59,17.75,6,1,0,Yes
 Zone Information, ZONE OFFICE WHOLEBUILDING - MD OFFICE A  - STORY TOP,0.0,-7.47,-8.03,7.92,-8.93E-015,-5.74,11.89,1,1,1,-7.47,7.47,-8.03,-3.45,7.92,15.85,7.92,541.07,TARP,TARP,68.27,118.34,100.59,17.75,6,1,0,Yes
 Zone Information, ZONE OFFICE WHOLEBUILDING - MD OFFICE A END_A - STORY GROUND,0.0,-12.04,-8.03,0.00,-9.75,-5.74,3.96,1,1,1,-12.04,-7.47,-8.03,-3.45,0.00,7.92,7.92,165.65,TARP,TARP,20.90,72.46,61.59,10.87,6,2,0,Yes
 Zone Information, ZONE OFFICE WHOLEBUILDING - MD OFFICE A END_A - STORY TOP,0.0,-12.04,-8.03,7.92,-9.75,-5.74,11.89,1,1,1,-12.04,-7.47,-8.03,-3.45,7.92,15.85,7.92,165.65,TARP,TARP,20.90,72.46,61.59,10.87,6,2,0,Yes
 Zone Information, ZONE OFFICE WHOLEBUILDING - MD OFFICE A END_B - STORY GROUND,0.0,7.47,-8.03,0.00,9.75,-5.74,3.96,1,1,1,7.47,12.04,-8.03,-3.45,0.00,7.92,7.92,165.65,TARP,TARP,20.90,72.46,61.59,10.87,6,2,0,Yes
 Zone Information, ZONE OFFICE WHOLEBUILDING - MD OFFICE A END_B - STORY TOP,0.0,7.47,-8.03,7.92,9.75,-5.74,11.89,1,1,1,7.47,12.04,-8.03,-3.45,7.92,15.85,7.92,165.65,TARP,TARP,20.90,72.46,61.59,10.87,6,2,0,Yes
 Zone Information, ZONE OFFICE WHOLEBUILDING - MD OFFICE B  - STORY GROUND,0.0,-7.47,-3.45,0.00,-8.92E-015,1.13E-015,3.96,1,1,1,-7.47,7.47,-3.45,3.45,0.00,7.92,7.92,817.46,TARP,TARP,103.15,0.00,0.00,0.00,6,0,0,Yes
 Zone Information, ZONE OFFICE WHOLEBUILDING - MD OFFICE B  - STORY TOP,0.0,-7.47,-3.45,7.92,-8.92E-015,1.24E-015,11.89,1,1,1,-7.47,7.47,-3.45,3.45,7.92,15.85,7.92,817.46,TARP,TARP,103.15,0.00,0.00,0.00,6,0,0,Yes
 Zone Information, ZONE OFFICE WHOLEBUILDING - MD OFFICE B END_A - STORY GROUND,0.0,-12.04,-3.45,0.00,-9.75,1.04E-015,3.96,1,1,1,-12.04,-7.47,-3.45,3.45,0.00,7.92,7.92,250.27,TARP,TARP,31.58,54.74,46.53,8.21,6,1,0,Yes
 Zone Information, ZONE OFFICE WHOLEBUILDING - MD OFFICE B END_A - STORY TOP,0.0,-12.04,-3.45,7.92,-9.75,1.10E-015,11.89,1,1,1,-12.04,-7.47,-3.45,3.45,7.92,15.85,7.92,250.27,TARP,TARP,31.58,54.74,46.53,8.21,6,1,0,Yes
 Zone Information, ZONE OFFICE WHOLEBUILDING - MD OFFICE B END_B - STORY GROUND,0.0,7.47,-3.45,0.00,9.75,1.04E-015,3.96,1,1,1,7.47,12.04,-3.45,3.45,0.00,7.92,7.92,250.27,TARP,TARP,31.58,54.74,46.53,8.21,6,1,0,Yes
 Zone Information, ZONE OFFICE WHOLEBUILDING - MD OFFICE B END_B - STORY TOP,0.0,7.47,-3.45,7.92,9.75,1.10E-015,11.89,1,1,1,7.47,12.04,-3.45,3.45,7.92,15.85,7.92,250.27,TARP,TARP,31.58,54.74,46.53,8.21,6,1,0,Yes
 Zone Information, ZONE OFFICE WHOLEBUILDING - MD OFFICE C  - STORY GROUND,0.0,-7.47,3.45,0.00,-8.81E-015,5.74,3.96,1,1,1,-7.47,7.47,3.45,8.03,0.00,7.92,7.92,541.07,TARP,TARP,68.27,118.34,100.59,17.75,6,1,0,Yes
 Zone Information, ZONE OFFICE WHOLEBUILDING - MD OFFICE C  - STORY TOP,0.0,-7.47,3.45,7.92,-8.80E-015,5.74,11.89,1,1,1,-7.47,7.47,3.45,8.03,7.92,15.85,7.92,541.07,TARP,TARP,68.27,118.34,100.59,17.75,6,1,0,Yes
 Zone Information, ZONE OFFICE WHOLEBUILDING - MD OFFICE C END_A - STORY GROUND,0.0,-12.04,3.45,0.00,-9.75,5.74,3.96,1,1,1,-12.04,-7.47,3.45,8.03,0.00,7.92,7.92,165.65,TARP,TARP,20.90,72.46,61.59,10.87,6,2,0,Yes
 Zone Information, ZONE OFFICE WHOLEBUILDING - MD OFFICE C END_A - STORY TOP,0.0,-12.04,3.45,7.92,-9.75,5.74,11.89,1,1,1,-12.04,-7.47,3.45,8.03,7.92,15.85,7.92,165.65,TARP,TARP,20.90,72.46,61.59,10.87,6,2,0,Yes
 Zone Information, ZONE OFFICE WHOLEBUILDING - MD OFFICE C END_B - STORY GROUND,0.0,7.47,3.45,0.00,9.75,5.74,3.96,1,1,1,7.47,12.04,3.45,8.03,0.00,7.92,7.92,165.65,TARP,TARP,20.90,72.46,61.59,10.87,6,2,0,Yes
 Zone Information, ZONE OFFICE WHOLEBUILDING - MD OFFICE C END_B - STORY TOP,0.0,7.47,3.45,7.92,9.75,5.74,11.89,1,1,1,7.47,12.04,3.45,8.03,7.92,15.85,7.92,165.65,TARP,TARP,20.90,72.46,61.59,10.87,6,2,0,Yes
! <Zone Internal Gains Nominal>,Zone Name, Floor Area {m2},# Occupants,Area per Occupant {m2/person},Occupant per Area {person/m2},Interior Lighting {W/m2},Electric Load {W/m2},Gas Load {W/m2},Other Load {W/m2},Hot Water Eq {W/m2},Steam Equipment {W/m2},Sum Loads per Area {W/m2},Outdoor Controlled Baseboard Heat
 Zone Internal Gains Nominal, ZONE OFFICE WHOLEBUILDING - MD OFFICE A  - STORY GROUND,68.27,3.7,18.581,5.382E-002,8.503,8.073,0.000,0.000,0.000,0.000,16.576,No
 Zone Internal Gains Nominal, ZONE OFFICE WHOLEBUILDING - MD OFFICE A  - STORY TOP,68.27,3.7,18.581,5.382E-002,8.503,8.073,0.000,0.000,0.000,0.000,16.576,No
 Zone Internal Gains Nominal, ZONE OFFICE WHOLEBUILDING - MD OFFICE A END_A - STORY GROUND,20.90,1.1,18.581,5.382E-002,8.503,8.073,0.000,0.000,0.000,0.000,16.576,No
 Zone Internal Gains Nominal, ZONE OFFICE WHOLEBUILDING - MD OFFICE A END_A - STORY TOP,20.90,1.1,18.581,5.382E-002,8.503,8.073,0.000,0.000,0.000,0.000,16.576,No
 Zone Internal Gains Nominal, ZONE OFFICE WHOLEBUILDING - MD OFFICE A END_B - STORY GROUND,20.90,1.1,18.581,5.382E-002,8.503,8.073,0.000,0.000,0.000,0.000,16.576,No
 Zone Internal Gains Nominal, ZONE OFFICE WHOLEBUILDING - MD OFFICE A END_B - STORY TOP,20.90,1.1,18.581,5.382E-002,8.503,8.073,0.000,0.000,0.000,0.000,16.576,No
 Zone Internal Gains Nominal, ZONE OFFICE WHOLEBUILDING - MD OFFICE B  - STORY GROUND,103.15,5.6,18.581,5.382E-002,8.503,8.073,0.000,0.000,0.000,0.000,16.576,No
 Zone Internal Gains Nominal, ZONE OFFICE WHOLEBUILDING - MD OFFICE B  - STORY TOP,103.15,5.6,18.581,5.382E-002,8.503,8.073,0.000,0.000,0.000,0.000,16.576,No
 Zone Internal Gains Nominal, ZONE OFFICE WHOLEBUILDING - MD OFFICE B END_A - STORY GROUND,31.58,1.7,18.581,5.382E-002,8.503,8.073,0.000,0.000,0.000,0.000,16.576,No
 Zone Internal Gains Nominal, ZONE OFFICE WHOLEBUILDING - MD OFFICE B END_A - STORY TOP,31.58,1.7,18.581,5.382E-002,8.503,8.073,0.000,0.000,0.000,0.000,16.576,No
 Zone Internal Gains Nominal, ZONE OFFICE WHOLEBUILDING - MD OFFICE B END_B - STORY GROUND,31.58,1.7,18.581,5.382E-002,8.503,8.073,0.000,0.000,0.000,0.000,16.576,No
 Zone Internal Gains Nominal, ZONE OFFICE WHOLEBUILDING - MD OFFICE B END_B - STORY TOP,31.58,1.7,18.581,5.382E-002,8.503,8.073,0.000,0.000,0.000,0.000,16.576,No
 Zone Internal Gains Nominal, ZONE OFFICE WHOLEBUILDING - MD OFFICE C  - STORY GROUND,68.27,3.7,18.581,5.382E-002,8.503,8.073,0.000,0.000,0.000,0.000,16.576,No
 Zone Internal Gains Nominal, ZONE OFFICE WHOLEBUILDING - MD OFFICE C  - STORY TOP,68.27,3.7,18.581,5.382E-002,8.503,8.073,0.000,0.000,0.000,0.000,16.576,No
 Zone Internal Gains Nominal, ZONE OFFICE WHOLEBUILDING - MD OFFICE C END_A - STORY GROUND,20.90,1.1,18.581,5.382E-002,8.503,8.073,0.000,0.000,0.000,0.000,16.576,No
 Zone Internal Gains Nominal, ZONE OFFICE WHOLEBUILDING - MD OFFICE C END_A - STORY TOP,20.90,1.1,18.581,5.382E-002,8.503,8.073,0.000,0.000,0.000,0.000,16.576,No
 Zone Internal Gains Nominal, ZONE OFFICE WHOLEBUILDING - MD OFFICE C END_B - STORY GROUND,20.90,1.1,18.581,5.382E-002,8.503,8.073,0.000,0.000,0.000,0.000,16.576,No
 Zone Internal Gains Nominal, ZONE OFFICE WHOLEBUILDING - MD OFFICE C END_B - STORY TOP,20.90,1.1,18.581,5.382E-002,8.503,8.073,0.000,0.000,0.000,0.000,16.576,No
! <People Internal Gains Nominal>,Name,Schedule Name,Zone Name,Zone Floor Area {m2},# Zone Occupants,Number of People {},People/Floor Area {person/m2},Floor Area per person {m2/person},Fraction Radiant,Fraction Convected,Sensible Fraction Calculation,Activity level,ASHRAE 55 Warnings,Carbon Dioxide Generation Rate,Nominal Minimum Number of People,Nominal Maximum Number of People
 People Internal Gains Nominal, OFFICE WHOLEBUILDING - MD OFFICE A END_A - STORY GROUND OFFICE WHOLEBUILDING - MD OFFICE PEOPLE,OFFICEMEDIUM BLDG_OCC_SCH,ZONE OFFICE WHOLEBUILDING - MD OFFICE A END_A - STORY GROUND,20.90,1.1,1.1,5.382E-002,18.581,0.300,0.700,AutoCalculate,OFFICEMEDIUM ACTIVITY_SCH,No,3.8200E-008,0,1
 People Internal Gains Nominal, OFFICE WHOLEBUILDING - MD OFFICE A  - STORY TOP OFFICE WHOLEBUILDING - MD OFFICE PEOPLE,OFFICEMEDIUM BLDG_OCC_SCH,ZONE OFFICE WHOLEBUILDING - MD OFFICE A  - STORY TOP,68.27,3.7,3.7,5.382E-002,18.581,0.300,0.700,AutoCalculate,OFFICEMEDIUM ACTIVITY_SCH,No,3.8200E-008,0,4
 People Internal Gains Nominal, OFFICE WHOLEBUILDING - MD OFFICE B END_A - STORY GROUND OFFICE WHOLEBUILDING - MD OFFICE PEOPLE,OFFICEMEDIUM BLDG_OCC_SCH,ZONE OFFICE WHOLEBUILDING - MD OFFICE B END_A - STORY GROUND,31.58,1.7,1.7,5.382E-002,18.581,0.300,0.700,AutoCalculate,OFFICEMEDIUM ACTIVITY_SCH,No,3.8200E-008,0,2
 People Internal Gains Nominal, OFFICE WHOLEBUILDING - MD OFFICE A  - STORY GROUND OFFICE WHOLEBUILDING - MD OFFICE PEOPLE,OFFICEMEDIUM BLDG_OCC_SCH,ZONE OFFICE WHOLEBUILDING - MD OFFICE A  - STORY GROUND,68.27,3.7,3.7,5.382E-002,18.581,0.300,0.700,AutoCalculate,OFFICEMEDIUM ACTIVITY_SCH,No,3.8200E-008,0,4
 People Internal Gains Nominal, OFFICE WHOLEBUILDING - MD OFFICE C  - STORY GROUND OFFICE WHOLEBUILDING - MD OFFICE PEOPLE,OFFICEMEDIUM BLDG_OCC_SCH,ZONE OFFICE WHOLEBUILDING - MD OFFICE C  - STORY GROUND,68.27,3.7,3.7,5.382E-002,18.581,0.300,0.700,AutoCalculate,OFFICEMEDIUM ACTIVITY_SCH,No,3.8200E-008,0,4
 People Internal Gains Nominal, OFFICE WHOLEBUILDING - MD OFFICE A END_B - STORY GROUND OFFICE WHOLEBUILDING - MD OFFICE PEOPLE,OFFICEMEDIUM BLDG_OCC_SCH,ZONE OFFICE WHOLEBUILDING - MD OFFICE A END_B - STORY GROUND,20.90,1.1,1.1,5.382E-002,18.581,0.300,0.700,AutoCalculate,OFFICEMEDIUM ACTIVITY_SCH,No,3.8200E-008,0,1
 People Internal Gains Nominal, OFFICE WHOLEBUILDING - MD OFFICE A END_A - STORY TOP OFFICE WHOLEBUILDING - MD OFFICE PEOPLE,OFFICEMEDIUM BLDG_OCC_SCH,ZONE OFFICE WHOLEBUILDING - MD OFFICE A END_A - STORY TOP,20.90,1.1,1.1,5.382E-002,18.581,0.300,0.700,AutoCalculate,OFFICEMEDIUM ACTIVITY_SCH,No,3.8200E-008,0,1
 People Internal Gains Nominal, OFFICE WHOLEBUILDING - MD OFFICE B END_A - STORY TOP OFFICE WHOLEBUILDING - MD OFFICE PEOPLE,OFFICEMEDIUM BLDG_OCC_SCH,ZONE OFFICE WHOLEBUILDING - MD OFFICE B END_A - STORY TOP,31.58,1.7,1.7,5.382E-002,18.581,0.300,0.700,AutoCalculate,OFFICEMEDIUM ACTIVITY_SCH,No,3.8200E-008,0,2
 People Internal Gains Nominal, OFFICE WHOLEBUILDING - MD OFFICE B END_B - STORY GROUND OFFICE WHOLEBUILDING - MD OFFICE PEOPLE,OFFICEMEDIUM BLDG_OCC_SCH,ZONE OFFICE WHOLEBUILDING - MD OFFICE B END_B - STORY GROUND,31.58,1.7,1.7,5.382E-002,18.581,0.300,0.700,AutoCalculate,OFFICEMEDIUM ACTIVITY_SCH,No,3.8200E-008,0,2
 People Internal Gains Nominal, OFFICE WHOLEBUILDING - MD OFFICE C END_A - STORY GROUND OFFICE WHOLEBUILDING - MD OFFICE PEOPLE,OFFICEMEDIUM BLDG_OCC_SCH,ZONE OFFICE WHOLEBUILDING - MD OFFICE C END_A - STORY GROUND,20.90,1.1,1.1,5.382E-002,18.581,0.300,0.700,AutoCalculate,OFFICEMEDIUM ACTIVITY_SCH,No,3.8200E-008,0,1
 People Internal Gains Nominal, OFFICE WHOLEBUILDING - MD OFFICE C END_A - STORY TOP OFFICE WHOLEBUILDING - MD OFFICE PEOPLE,OFFICEMEDIUM BLDG_OCC_SCH,ZONE OFFICE WHOLEBUILDING - MD OFFICE C END_A - STORY TOP,20.90,1.1,1.1,5.382E-002,18.581,0.300,0.700,AutoCalculate,OFFICEMEDIUM ACTIVITY_SCH,No,3.8200E-008,0,1
 People Internal Gains Nominal, OFFICE WHOLEBUILDING - MD OFFICE C END_B - STORY GROUND OFFICE WHOLEBUILDING - MD OFFICE PEOPLE,OFFICEMEDIUM BLDG_OCC_SCH,ZONE OFFICE WHOLEBUILDING - MD OFFICE C END_B - STORY GROUND,20.90,1.1,1.1,5.382E-002,18.581,0.300,0.700,AutoCalculate,OFFICEMEDIUM ACTIVITY_SCH,No,3.8200E-008,0,1
 People Internal Gains Nominal, OFFICE WHOLEBUILDING - MD OFFICE B  - STORY TOP OFFICE WHOLEBUILDING - MD OFFICE PEOPLE,OFFICEMEDIUM BLDG_OCC_SCH,ZONE OFFICE WHOLEBUILDING - MD OFFICE B  - STORY TOP,103.15,5.6,5.6,5.382E-002,18.581,0.300,0.700,AutoCalculate,OFFICEMEDIUM ACTIVITY_SCH,No,3.8200E-008,0,6
 People Internal Gains Nominal, OFFICE WHOLEBUILDING - MD OFFICE A END_B - STORY TOP OFFICE WHOLEBUILDING - MD OFFICE PEOPLE,OFFICEMEDIUM BLDG_OCC_SCH,ZONE OFFICE WHOLEBUILDING - MD OFFICE A END_B - STORY TOP,20.90,1.1,1.1,5.382E-002,18.581,0.300,0.700,AutoCalculate,OFFICEMEDIUM ACTIVITY_SCH,No,3.8200E-008,0,1
 People Internal Gains Nominal, OFFICE WHOLEBUILDING - MD OFFICE B END_B - STORY TOP OFFICE WHOLEBUILDING - MD OFFICE PEOPLE,OFFICEMEDIUM BLDG_OCC_SCH,ZONE OFFICE WHOLEBUILDING - MD OFFICE B END_B - STORY TOP,31.58,1.7,1.7,5.382E-002,18.581,0.300,0.700,AutoCalculate,OFFICEMEDIUM ACTIVITY_SCH,No,3.8200E-008,0,2
 People Internal Gains Nominal, OFFICE WHOLEBUILDING - MD OFFICE B  - STORY GROUND OFFICE WHOLEBUILDING - MD OFFICE PEOPLE,OFFICEMEDIUM BLDG_OCC_SCH,ZONE OFFICE WHOLEBUILDING - MD OFFICE B  - STORY GROUND,103.15,5.6,5.6,5.382E-002,18.581,0.300,0.700,AutoCalculate,OFFICEMEDIUM ACTIVITY_SCH,No,3.8200E-008,0,6
 People Internal Gains Nominal, OFFICE WHOLEBUILDING - MD OFFICE C  - STORY TOP OFFICE WHOLEBUILDING - MD OFFICE PEOPLE,OFFICEMEDIUM BLDG_OCC_SCH,ZONE OFFICE WHOLEBUILDING - MD OFFICE C  - STORY TOP,68.27,3.7,3.7,5.382E-002,18.581,0.300,0.700,AutoCalculate,OFFICEMEDIUM ACTIVITY_SCH,No,3.8200E-008,0,4
 People Internal Gains Nominal, OFFICE WHOLEBUILDING - MD OFFICE C END_B - STORY TOP OFFICE WHOLEBUILDING - MD OFFICE PEOPLE,OFFICEMEDIUM BLDG_OCC_SCH,ZONE OFFICE WHOLEBUILDING - MD OFFICE C END_B - STORY TOP,20.90,1.1,1.1,5.382E-002,18.581,0.300,0.700,AutoCalculate,OFFICEMEDIUM ACTIVITY_SCH,No,3.8200E-008,0,1
! <Lights Internal Gains Nominal>,Name,Schedule Name,Zone Name,Zone Floor Area {m2},# Zone Occupants,Lighting Level {W},Lights/Floor Area {W/m2},Lights per person {W/person},Fraction Return Air,Fraction Radiant,Fraction Short Wave,Fraction Convected,Fraction Replaceable,End-Use Category,Nominal Minimum Lighting Level {W},Nominal Maximum Lighting Level {W}
 Lights Internal Gains Nominal, OFFICE WHOLEBUILDING - MD OFFICE A END_A - STORY GROUND OFFICE WHOLEBUILDING - MD OFFICE LIGHTS,OFFICEMEDIUM BLDG_LIGHT_SCH_2013,ZONE OFFICE WHOLEBUILDING - MD OFFICE A END_A - STORY GROUND,20.90,1.1,177.750,8.503,158.000,0.000,0.700,0.200,0.100,1.000,General,0.000,177.750
 Lights Internal Gains Nominal, OFFICE WHOLEBUILDING - MD OFFICE A  - STORY TOP OFFICE WHOLEBUILDING - MD OFFICE LIGHTS,OFFICEMEDIUM BLDG_LIGHT_SCH_2013,ZONE OFFICE WHOLEBUILDING - MD OFFICE A  - STORY TOP,68.27,3.7,580.575,8.503,158.000,0.000,0.700,0.200,0.100,1.000,General,0.000,580.575
 Lights Internal Gains Nominal, OFFICE WHOLEBUILDING - MD OFFICE B END_A - STORY GROUND OFFICE WHOLEBUILDING - MD OFFICE LIGHTS,OFFICEMEDIUM BLDG_LIGHT_SCH_2013,ZONE OFFICE WHOLEBUILDING - MD OFFICE B END_A - STORY GROUND,31.58,1.7,268.550,8.503,158.000,0.000,0.700,0.200,0.100,1.000,General,0.000,268.550
 Lights Internal Gains Nominal, OFFICE WHOLEBUILDING - MD OFFICE A  - STORY GROUND OFFICE WHOLEBUILDING - MD OFFICE LIGHTS,OFFICEMEDIUM BLDG_LIGHT_SCH_2013,ZONE OFFICE WHOLEBUILDING - MD OFFICE A  - STORY GROUND,68.27,3.7,580.575,8.503,158.000,0.000,0.700,0.200,0.100,1.000,General,0.000,580.575
 Lights Internal Gains Nominal, OFFICE WHOLEBUILDING - MD OFFICE C  - STORY GROUND OFFICE WHOLEBUILDING - MD OFFICE LIGHTS,OFFICEMEDIUM BLDG_LIGHT_SCH_2013,ZONE OFFICE WHOLEBUILDING - MD OFFICE C  - STORY GROUND,68.27,3.7,580.575,8.503,158.000,0.000,0.700,0.200,0.100,1.000,General,0.000,580.575
 Lights Internal Gains Nominal, OFFICE WHOLEBUILDING - MD OFFICE A END_B - STORY GROUND OFFICE WHOLEBUILDING - MD OFFICE LIGHTS,OFFICEMEDIUM BLDG_LIGHT_SCH_2013,ZONE OFFICE WHOLEBUILDING - MD OFFICE A END_B - STORY GROUND,20.90,1.1,177.750,8.503,158.000,0.000,0.700,0.200,0.100,1.000,General,0.000,177.750
 Lights Internal Gains Nominal, OFFICE WHOLEBUILDING - MD OFFICE A END_A - STORY TOP OFFICE WHOLEBUILDING - MD OFFICE LIGHTS,OFFICEMEDIUM BLDG_LIGHT_SCH_2013,ZONE OFFICE WHOLEBUILDING - MD OFFICE A END_A - STORY TOP,20.90,1.1,177.750,8.503,158.000,0.000,0.700,0.200,0.100,1.000,General,0.000,177.750
 Lights Internal Gains Nominal, OFFICE WHOLEBUILDING - MD OFFICE B END_A - STORY TOP OFFICE WHOLEBUILDING - MD OFFICE LIGHTS,OFFICEMEDIUM BLDG_LIGHT_SCH_2013,ZONE OFFICE WHOLEBUILDING - MD OFFICE B END_A - STORY TOP,31.58,1.7,268.550,8.503,158.000,0.000,0.700,0.200,0.100,1.000,General,0.000,268.550
 Lights Internal Gains Nominal, OFFICE WHOLEBUILDING - MD OFFICE B END_B - STORY GROUND OFFICE WHOLEBUILDING - MD OFFICE LIGHTS,OFFICEMEDIUM BLDG_LIGHT_SCH_2013,ZONE OFFICE WHOLEBUILDING - MD OFFICE B END_B - STORY GROUND,31.58,1.7,268.550,8.503,158.000,0.000,0.700,0.200,0.100,1.000,General,0.000,268.550
 Lights Internal Gains Nominal, OFFICE WHOLEBUILDING - MD OFFICE C END_A - STORY GROUND OFFICE WHOLEBUILDING - MD OFFICE LIGHTS,OFFICEMEDIUM BLDG_LIGHT_SCH_2013,ZONE OFFICE WHOLEBUILDING - MD OFFICE C END_A - STORY GROUND,20.90,1.1,177.750,8.503,158.000,0.000,0.700,0.200,0.100,1.000,General,0.000,177.750
 Lights Internal Gains Nominal, OFFICE WHOLEBUILDING - MD OFFICE C END_A - STORY TOP OFFICE WHOLEBUILDING - MD OFFICE LIGHTS,OFFICEMEDIUM BLDG_LIGHT_SCH_2013,ZONE OFFICE WHOLEBUILDING - MD OFFICE C END_A - STORY TOP,20.90,1.1,177.750,8.503,158.000,0.000,0.700,0.200,0.100,1.000,General,0.000,177.750
 Lights Internal Gains Nominal, OFFICE WHOLEBUILDING - MD OFFICE C END_B - STORY GROUND OFFICE WHOLEBUILDING - MD OFFICE LIGHTS,OFFICEMEDIUM BLDG_LIGHT_SCH_2013,ZONE OFFICE WHOLEBUILDING - MD OFFICE C END_B - STORY GROUND,20.90,1.1,177.750,8.503,158.000,0.000,0.700,0.200,0.100,1.000,General,0.000,177.750
 Lights Internal Gains Nominal, OFFICE WHOLEBUILDING - MD OFFICE B  - STORY TOP OFFICE WHOLEBUILDING - MD OFFICE LIGHTS,OFFICEMEDIUM BLDG_LIGHT_SCH_2013,ZONE OFFICE WHOLEBUILDING - MD OFFICE B  - STORY TOP,103.15,5.6,877.150,8.503,158.000,0.000,0.700,0.200,0.100,1.000,General,0.000,877.150
 Lights Internal Gains Nominal, OFFICE WHOLEBUILDING - MD OFFICE A END_B - STORY TOP OFFICE WHOLEBUILDING - MD OFFICE LIGHTS,OFFICEMEDIUM BLDG_LIGHT_SCH_2013,ZONE OFFICE WHOLEBUILDING - MD OFFICE A END_B - STORY TOP,20.90,1.1,177.750,8.503,158.000,0.000,0.700,0.200,0.100,1.000,General,0.000,177.750
 Lights Internal Gains Nominal, OFFICE WHOLEBUILDING - MD OFFICE B END_B - STORY TOP OFFICE WHOLEBUILDING - MD OFFICE LIGHTS,OFFICEMEDIUM BLDG_LIGHT_SCH_2013,ZONE OFFICE WHOLEBUILDING - MD OFFICE B END_B - STORY TOP,31.58,1.7,268.550,8.503,158.000,0.000,0.700,0.200,0.100,1.000,General,0.000,268.550
 Lights Internal Gains Nominal, OFFICE WHOLEBUILDING - MD OFFICE B  - STORY GROUND OFFICE WHOLEBUILDING - MD OFFICE LIGHTS,OFFICEMEDIUM BLDG_LIGHT_SCH_2013,ZONE OFFICE WHOLEBUILDING - MD OFFICE B  - STORY GROUND,103.15,5.6,877.150,8.503,158.000,0.000,0.700,0.200,0.100,1.000,General,0.000,877.150
 Lights Internal Gains Nominal, OFFICE WHOLEBUILDING - MD OFFICE C  - STORY TOP OFFICE WHOLEBUILDING - MD OFFICE LIGHTS,OFFICEMEDIUM BLDG_LIGHT_SCH_2013,ZONE OFFICE WHOLEBUILDING - MD OFFICE C  - STORY TOP,68.27,3.7,580.575,8.503,158.000,0.000,0.700,0.200,0.100,1.000,General,0.000,580.575
 Lights Internal Gains Nominal, OFFICE WHOLEBUILDING - MD OFFICE C END_B - STORY TOP OFFICE WHOLEBUILDING - MD OFFICE LIGHTS,OFFICEMEDIUM BLDG_LIGHT_SCH_2013,ZONE OFFICE WHOLEBUILDING - MD OFFICE C END_B - STORY TOP,20.90,1.1,177.750,8.503,158.000,0.000,0.700,0.200,0.100,1.000,General,0.000,177.750
! <ElectricEquipment Internal Gains Nominal>,Name,Schedule Name,Zone Name,Zone Floor Area {m2},# Zone Occupants,Equipment Level {W},Equipment/Floor Area {W/m2},Equipment per person {W/person},Fraction Latent,Fraction Radiant,Fraction Lost,Fraction Convected,End-Use SubCategory,Nominal Minimum Equipment Level {W},Nominal Maximum Equipment Level {W}
 ElectricEquipment Internal Gains Nominal, OFFICE WHOLEBUILDING - MD OFFICE A END_A - STORY GROUND OFFICE WHOLEBUILDING - MD OFFICE ELEC EQUIP,OFFICEMEDIUM BLDG_EQUIP_SCH_2013,ZONE OFFICE WHOLEBUILDING - MD OFFICE A END_A - STORY GROUND,20.90,1.1,168.750,8.073,150.000,0.000,0.500,0.000,0.500,General,0.000,168.750
 ElectricEquipment Internal Gains Nominal, OFFICE WHOLEBUILDING - MD OFFICE A  - STORY TOP OFFICE WHOLEBUILDING - MD OFFICE ELEC EQUIP,OFFICEMEDIUM BLDG_EQUIP_SCH_2013,ZONE OFFICE WHOLEBUILDING - MD OFFICE A  - STORY TOP,68.27,3.7,551.179,8.073,150.000,0.000,0.500,0.000,0.500,General,0.000,551.179
 ElectricEquipment Internal Gains Nominal, OFFICE WHOLEBUILDING - MD OFFICE B END_A - STORY GROUND OFFICE WHOLEBUILDING - MD OFFICE ELEC EQUIP,OFFICEMEDIUM BLDG_EQUIP_SCH_2013,ZONE OFFICE WHOLEBUILDING - MD OFFICE B END_A - STORY GROUND,31.58,1.7,254.953,8.073,150.000,0.000,0.500,0.000,0.500,General,0.000,254.953
 ElectricEquipment Internal Gains Nominal, OFFICE WHOLEBUILDING - MD OFFICE A  - STORY GROUND OFFICE WHOLEBUILDING - MD OFFICE ELEC EQUIP,OFFICEMEDIUM BLDG_EQUIP_SCH_2013,ZONE OFFICE WHOLEBUILDING - MD OFFICE A  - STORY GROUND,68.27,3.7,551.179,8.073,150.000,0.000,0.500,0.000,0.500,General,0.000,551.179
 ElectricEquipment Internal Gains Nominal, OFFICE WHOLEBUILDING - MD OFFICE C  - STORY GROUND OFFICE WHOLEBUILDING - MD OFFICE ELEC EQUIP,OFFICEMEDIUM BLDG_EQUIP_SCH_2013,ZONE OFFICE WHOLEBUILDING - MD OFFICE C  - STORY GROUND,68.27,3.7,551.179,8.073,150.000,0.000,0.500,0.000,0.500,General,0.000,551.179
 ElectricEquipment Internal Gains Nominal, OFFICE WHOLEBUILDING - MD OFFICE A END_B - STORY GROUND OFFICE WHOLEBUILDING - MD OFFICE ELEC EQUIP,OFFICEMEDIUM BLDG_EQUIP_SCH_2013,ZONE OFFICE WHOLEBUILDING - MD OFFICE A END_B - STORY GROUND,20.90,1.1,168.750,8.073,150.000,0.000,0.500,0.000,0.500,General,0.000,168.750
 ElectricEquipment Internal Gains Nominal, OFFICE WHOLEBUILDING - MD OFFICE A END_A - STORY TOP OFFICE WHOLEBUILDING - MD OFFICE ELEC EQUIP,OFFICEMEDIUM BLDG_EQUIP_SCH_2013,ZONE OFFICE WHOLEBUILDING - MD OFFICE A END_A - STORY TOP,20.90,1.1,168.750,8.073,150.000,0.000,0.500,0.000,0.500,General,0.000,168.750
 ElectricEquipment Internal Gains Nominal, OFFICE WHOLEBUILDING - MD OFFICE B END_A - STORY TOP OFFICE WHOLEBUILDING - MD OFFICE ELEC EQUIP,OFFICEMEDIUM BLDG_EQUIP_SCH_2013,ZONE OFFICE WHOLEBUILDING - MD OFFICE B END_A - STORY TOP,31.58,1.7,254.953,8.073,150.000,0.000,0.500,0.000,0.500,General,0.000,254.953
 ElectricEquipment Internal Gains Nominal, OFFICE WHOLEBUILDING - MD OFFICE B END_B - STORY GROUND OFFICE WHOLEBUILDING - MD OFFICE ELEC EQUIP,OFFICEMEDIUM BLDG_EQUIP_SCH_2013,ZONE OFFICE WHOLEBUILDING - MD OFFICE B END_B - STORY GROUND,31.58,1.7,254.953,8.073,150.000,0.000,0.500,0.000,0.500,General,0.000,254.953
 ElectricEquipment Internal Gains Nominal, OFFICE WHOLEBUILDING - MD OFFICE C END_A - STORY GROUND OFFICE WHOLEBUILDING - MD OFFICE ELEC EQUIP,OFFICEMEDIUM BLDG_EQUIP_SCH_2013,ZONE OFFICE WHOLEBUILDING - MD OFFICE C END_A - STORY GROUND,20.90,1.1,168.750,8.073,150.000,0.000,0.500,0.000,0.500,General,0.000,168.750
 ElectricEquipment Internal Gains Nominal, OFFICE WHOLEBUILDING - MD OFFICE C END_A - STORY TOP OFFICE WHOLEBUILDING - MD OFFICE ELEC EQUIP,OFFICEMEDIUM BLDG_EQUIP_SCH_2013,ZONE OFFICE WHOLEBUILDING - MD OFFICE C END_A - STORY TOP,20.90,1.1,168.750,8.073,150.000,0.000,0.500,0.000,0.500,General,0.000,168.750
 ElectricEquipment Internal Gains Nominal, OFFICE WHOLEBUILDING - MD OFFICE C END_B - STORY GROUND OFFICE WHOLEBUILDING - MD OFFICE ELEC EQUIP,OFFICEMEDIUM BLDG_EQUIP_SCH_2013,ZONE OFFICE WHOLEBUILDING - MD OFFICE C END_B - STORY GROUND,20.90,1.1,168.750,8.073,150.000,0.000,0.500,0.000,0.500,General,0.000,168.750
 ElectricEquipment Internal Gains Nominal, OFFICE WHOLEBUILDING - MD OFFICE B  - STORY TOP OFFICE WHOLEBUILDING - MD OFFICE ELEC EQUIP,OFFICEMEDIUM BLDG_EQUIP_SCH_2013,ZONE OFFICE WHOLEBUILDING - MD OFFICE B  - STORY TOP,103.15,5.6,832.737,8.073,150.000,0.000,0.500,0.000,0.500,General,0.000,832.737
 ElectricEquipment Internal Gains Nominal, OFFICE WHOLEBUILDING - MD OFFICE A END_B - STORY TOP OFFICE WHOLEBUILDING - MD OFFICE ELEC EQUIP,OFFICEMEDIUM BLDG_EQUIP_SCH_2013,ZONE OFFICE WHOLEBUILDING - MD OFFICE A END_B - STORY TOP,20.90,1.1,168.750,8.073,150.000,0.000,0.500,0.000,0.500,General,0.000,168.750
 ElectricEquipment Internal Gains Nominal, OFFICE WHOLEBUILDING - MD OFFICE B END_B - STORY TOP OFFICE WHOLEBUILDING - MD OFFICE ELEC EQUIP,OFFICEMEDIUM BLDG_EQUIP_SCH_2013,ZONE OFFICE WHOLEBUILDING - MD OFFICE B END_B - STORY TOP,31.58,1.7,254.953,8.073,150.000,0.000,0.500,0.000,0.500,General,0.000,254.953
 ElectricEquipment Internal Gains Nominal, OFFICE WHOLEBUILDING - MD OFFICE B  - STORY GROUND OFFICE WHOLEBUILDING - MD OFFICE ELEC EQUIP,OFFICEMEDIUM BLDG_EQUIP_SCH_2013,ZONE OFFICE WHOLEBUILDING - MD OFFICE B  - STORY GROUND,103.15,5.6,832.737,8.073,150.000,0.000,0.500,0.000,0.500,General,0.000,832.737
 ElectricEquipment Internal Gains Nominal, OFFICE WHOLEBUILDING - MD OFFICE C  - STORY TOP OFFICE WHOLEBUILDING - MD OFFICE ELEC EQUIP,OFFICEMEDIUM BLDG_EQUIP_SCH_2013,ZONE OFFICE WHOLEBUILDING - MD OFFICE C  - STORY TOP,68.27,3.7,551.179,8.073,150.000,0.000,0.500,0.000,0.500,General,0.000,551.179
 ElectricEquipment Internal Gains Nominal, OFFICE WHOLEBUILDING - MD OFFICE C END_B - STORY TOP OFFICE WHOLEBUILDING - MD OFFICE ELEC EQUIP,OFFICEMEDIUM BLDG_EQUIP_SCH_2013,ZONE OFFICE WHOLEBUILDING - MD OFFICE C END_B - STORY TOP,20.90,1.1,168.750,8.073,150.000,0.000,0.500,0.000,0.500,General,0.000,168.750
! <Shadowing/Sun Position Calculations Annual Simulations>, Shading Calculation Method, Shading Calculation Update Frequency Method, Shading Calculation Update Frequency {days}, Maximum Figures in Shadow Overlap Calculations {}, Polygon Clipping Algorithm, Pixel Counting Resolution, Sky Diffuse Modeling Algorithm, Output External Shading Calculation Results, Disable Self-Shading Within Shading Zone Groups, Disable Self-Shading From Shading Zone Groups to Other Zones
Shadowing/Sun Position Calculations Annual Simulations,PolygonClipping,Periodic,30,15000,SutherlandHodgman,512,SimpleSkyDiffuseModeling,No,No,No
! <Enclosure/Window Adjacency Daylighting Counts>, Enclosure Name, Number of Exterior Windows, Number of Exterior Windows in Adjacent Enclosures
Enclosure/Window Adjacency Daylighting Counts, OFFICE WHOLEBUILDING - MD OFFICE A  - STORY GROUND,1,0
Enclosure/Window Adjacency Daylighting Counts, OFFICE WHOLEBUILDING - MD OFFICE A  - STORY TOP,1,0
Enclosure/Window Adjacency Daylighting Counts, OFFICE WHOLEBUILDING - MD OFFICE C  - STORY GROUND,1,0
Enclosure/Window Adjacency Daylighting Counts, OFFICE WHOLEBUILDING - MD OFFICE C  - STORY TOP,1,0
! <Enclosure/Window Adjacency Daylighting Matrix>, Enclosure Name, Number of Adjacent Enclosures with Windows,Adjacent Enclosure Names - 1st 100 (max)
Enclosure/Window Adjacency Daylighting Matrix, OFFICE WHOLEBUILDING - MD OFFICE A  - STORY GROUND,0
Enclosure/Window Adjacency Daylighting Matrix, OFFICE WHOLEBUILDING - MD OFFICE A  - STORY TOP,0
Enclosure/Window Adjacency Daylighting Matrix, OFFICE WHOLEBUILDING - MD OFFICE C  - STORY GROUND,0
Enclosure/Window Adjacency Daylighting Matrix, OFFICE WHOLEBUILDING - MD OFFICE C  - STORY TOP,0
! <Water Heater Information>,Type,Name,Volume {m3},Maximum Capacity {W},Standard Rated Recovery Efficiency, Standard Rated Energy Factor
! <ZoneInfiltration Airflow Stats Nominal>,Name,Schedule Name,Zone Name, Zone Floor Area {m2}, # Zone Occupants,Design Volume Flow Rate {m3/s},Volume Flow Rate/Floor Area {m3/s-m2},Volume Flow Rate/Exterior Surface Area {m3/s-m2},ACH - Air Changes per Hour,Equation A - Constant Term Coefficient {},Equation B - Temperature Term Coefficient {1/C},Equation C - Velocity Term Coefficient {s/m}, Equation D - Velocity Squared Term Coefficient {s2/m2}
 ZoneInfiltration Airflow Stats Nominal, OFFICE WHOLEBUILDING - MD OFFICE A  - STORY GROUND INFILTRATION,ALWAYS ON DISCRETE,ZONE OFFICE WHOLEBUILDING - MD OFFICE A  - STORY GROUND,68.27,3.7,6.741E-002,9.873E-004,5.696E-004,0.448,0.000,0.000,0.224,0.000
 ZoneInfiltration Airflow Stats Nominal, OFFICE WHOLEBUILDING - MD OFFICE A  - STORY TOP INFILTRATION,ALWAYS ON DISCRETE,ZONE OFFICE WHOLEBUILDING - MD OFFICE A  - STORY TOP,68.27,3.7,6.741E-002,9.873E-004,3.612E-004,0.448,0.000,0.000,0.224,0.000
 ZoneInfiltration Airflow Stats Nominal, OFFICE WHOLEBUILDING - MD OFFICE A END_A - STORY GROUND INFILTRATION,ALWAYS ON DISCRETE,ZONE OFFICE WHOLEBUILDING - MD OFFICE A END_A - STORY GROUND,20.90,1.1,4.127E-002,1.975E-003,5.696E-004,0.897,0.000,0.000,0.224,0.000
 ZoneInfiltration Airflow Stats Nominal, OFFICE WHOLEBUILDING - MD OFFICE A END_A - STORY TOP INFILTRATION,ALWAYS ON DISCRETE,ZONE OFFICE WHOLEBUILDING - MD OFFICE A END_A - STORY TOP,20.90,1.1,4.127E-002,1.975E-003,4.421E-004,0.897,0.000,0.000,0.224,0.000
 ZoneInfiltration Airflow Stats Nominal, OFFICE WHOLEBUILDING - MD OFFICE A END_B - STORY GROUND INFILTRATION,ALWAYS ON DISCRETE,ZONE OFFICE WHOLEBUILDING - MD OFFICE A END_B - STORY GROUND,20.90,1.1,4.127E-002,1.975E-003,5.696E-004,0.897,0.000,0.000,0.224,0.000
 ZoneInfiltration Airflow Stats Nominal, OFFICE WHOLEBUILDING - MD OFFICE A END_B - STORY TOP INFILTRATION,ALWAYS ON DISCRETE,ZONE OFFICE WHOLEBUILDING - MD OFFICE A END_B - STORY TOP,20.90,1.1,4.127E-002,1.975E-003,4.421E-004,0.897,0.000,0.000,0.224,0.000
 ZoneInfiltration Airflow Stats Nominal, OFFICE WHOLEBUILDING - MD OFFICE B END_A - STORY GROUND INFILTRATION,ALWAYS ON DISCRETE,ZONE OFFICE WHOLEBUILDING - MD OFFICE B END_A - STORY GROUND,31.58,1.7,3.118E-002,9.873E-004,5.696E-004,0.448,0.000,0.000,0.224,0.000
 ZoneInfiltration Airflow Stats Nominal, OFFICE WHOLEBUILDING - MD OFFICE B END_A - STORY TOP INFILTRATION,ALWAYS ON DISCRETE,ZONE OFFICE WHOLEBUILDING - MD OFFICE B END_A - STORY TOP,31.58,1.7,3.118E-002,9.873E-004,3.612E-004,0.448,0.000,0.000,0.224,0.000
 ZoneInfiltration Airflow Stats Nominal, OFFICE WHOLEBUILDING - MD OFFICE B END_B - STORY GROUND INFILTRATION,ALWAYS ON DISCRETE,ZONE OFFICE WHOLEBUILDING - MD OFFICE B END_B - STORY GROUND,31.58,1.7,3.118E-002,9.873E-004,5.696E-004,0.448,0.000,0.000,0.224,0.000
 ZoneInfiltration Airflow Stats Nominal, OFFICE WHOLEBUILDING - MD OFFICE B END_B - STORY TOP INFILTRATION,ALWAYS ON DISCRETE,ZONE OFFICE WHOLEBUILDING - MD OFFICE B END_B - STORY TOP,31.58,1.7,3.118E-002,9.873E-004,3.612E-004,0.448,0.000,0.000,0.224,0.000
 ZoneInfiltration Airflow Stats Nominal, OFFICE WHOLEBUILDING - MD OFFICE C  - STORY GROUND INFILTRATION,ALWAYS ON DISCRETE,ZONE OFFICE WHOLEBUILDING - MD OFFICE C  - STORY GROUND,68.27,3.7,6.741E-002,9.873E-004,5.696E-004,0.448,0.000,0.000,0.224,0.000
 ZoneInfiltration Airflow Stats Nominal, OFFICE WHOLEBUILDING - MD OFFICE C  - STORY TOP INFILTRATION,ALWAYS ON DISCRETE,ZONE OFFICE WHOLEBUILDING - MD OFFICE C  - STORY TOP,68.27,3.7,6.741E-002,9.873E-004,3.612E-004,0.448,0.000,0.000,0.224,0.000
 ZoneInfiltration Airflow Stats Nominal, OFFICE WHOLEBUILDING - MD OFFICE C END_A - STORY GROUND INFILTRATION,ALWAYS ON DISCRETE,ZONE OFFICE WHOLEBUILDING - MD OFFICE C END_A - STORY GROUND,20.90,1.1,4.127E-002,1.975E-003,5.696E-004,0.897,0.000,0.000,0.224,0.000
 ZoneInfiltration Airflow Stats Nominal, OFFICE WHOLEBUILDING - MD OFFICE C END_A - STORY TOP INFILTRATION,ALWAYS ON DISCRETE,ZONE OFFICE WHOLEBUILDING - MD OFFICE C END_A - STORY TOP,20.90,1.1,4.127E-002,1.975E-003,4.421E-004,0.897,0.000,0.000,0.224,0.000
 ZoneInfiltration Airflow Stats Nominal, OFFICE WHOLEBUILDING - MD OFFICE C END_B - STORY GROUND INFILTRATION,ALWAYS ON DISCRETE,ZONE OFFICE WHOLEBUILDING - MD OFFICE C END_B - STORY GROUND,20.90,1.1,4.127E-002,1.975E-003,5.696E-004,0.897,0.000,0.000,0.224,0.000
 ZoneInfiltration Airflow Stats Nominal, OFFICE WHOLEBUILDING - MD OFFICE C END_B - STORY TOP INFILTRATION,ALWAYS ON DISCRETE,ZONE OFFICE WHOLEBUILDING - MD OFFICE C END_B - STORY TOP,20.90,1.1,4.127E-002,1.975E-003,4.421E-004,0.897,0.000,0.000,0.224,0.000
! <AirFlow Model>, Simple
 AirFlow Model, Simple
! <RoomAir Model>, Zone Name, Mixing/Mundt/UCSDDV/UCSDCV/UCSDUFI/UCSDUFE/User Defined
RoomAir Model,ZONE OFFICE WHOLEBUILDING - MD OFFICE A  - STORY GROUND,Mixing/Well-Stirred
RoomAir Model,ZONE OFFICE WHOLEBUILDING - MD OFFICE A  - STORY TOP,Mixing/Well-Stirred
RoomAir Model,ZONE OFFICE WHOLEBUILDING - MD OFFICE A END_A - STORY GROUND,Mixing/Well-Stirred
RoomAir Model,ZONE OFFICE WHOLEBUILDING - MD OFFICE A END_A - STORY TOP,Mixing/Well-Stirred
RoomAir Model,ZONE OFFICE WHOLEBUILDING - MD OFFICE A END_B - STORY GROUND,Mixing/Well-Stirred
RoomAir Model,ZONE OFFICE WHOLEBUILDING - MD OFFICE A END_B - STORY TOP,Mixing/Well-Stirred
RoomAir Model,ZONE OFFICE WHOLEBUILDING - MD OFFICE B  - STORY GROUND,Mixing/Well-Stirred
RoomAir Model,ZONE OFFICE WHOLEBUILDING - MD OFFICE B  - STORY TOP,Mixing/Well-Stirred
RoomAir Model,ZONE OFFICE WHOLEBUILDING - MD OFFICE B END_A - STORY GROUND,Mixing/Well-Stirred
RoomAir Model,ZONE OFFICE WHOLEBUILDING - MD OFFICE B END_A - STORY TOP,Mixing/Well-Stirred
RoomAir Model,ZONE OFFICE WHOLEBUILDING - MD OFFICE B END_B - STORY GROUND,Mixing/Well-Stirred
RoomAir Model,ZONE OFFICE WHOLEBUILDING - MD OFFICE B END_B - STORY TOP,Mixing/Well-Stirred
RoomAir Model,ZONE OFFICE WHOLEBUILDING - MD OFFICE C  - STORY GROUND,Mixing/Well-Stirred
RoomAir Model,ZONE OFFICE WHOLEBUILDING - MD OFFICE C  - STORY TOP,Mixing/Well-Stirred
RoomAir Model,ZONE OFFICE WHOLEBUILDING - MD OFFICE C END_A - STORY GROUND,Mixing/Well-Stirred
RoomAir Model,ZONE OFFICE WHOLEBUILDING - MD OFFICE C END_A - STORY TOP,Mixing/Well-Stirred
RoomAir Model,ZONE OFFICE WHOLEBUILDING - MD OFFICE C END_B - STORY GROUND,Mixing/Well-Stirred
RoomAir Model,ZONE OFFICE WHOLEBUILDING - MD OFFICE C END_B - STORY TOP,Mixing/Well-Stirred
! <AirflowNetwork Model:Control>, No Multizone or Distribution/Multizone with Distribution/Multizone without Distribution/Multizone with Distribution only during Fan Operation
AirflowNetwork Model:Control,NoMultizoneOrDistribution
! <Zone Volume Capacitance Multiplier>, Sensible Heat Capacity Multiplier, Moisture Capacity Multiplier, Carbon Dioxide Capacity Multiplier, Generic Contaminant Capacity Multiplier
Zone Volume Capacitance Multiplier,   1.000 ,   1.000,   1.000,   1.000
! <Load Timesteps in Zone Design Calculation Averaging Window>, Value
 Load Timesteps in Zone Design Calculation Averaging Window,    6
! <Heating Sizing Factor Information>, Sizing Factor ID, Value
 Heating Sizing Factor Information, Global,   1.2500    
 Heating Sizing Factor Information, Zone ZONE OFFICE WHOLEBUILDING - MD OFFICE A  - STORY GROUND,   1.2500    
 Heating Sizing Factor Information, Zone ZONE OFFICE WHOLEBUILDING - MD OFFICE A  - STORY TOP,   1.2500    
 Heating Sizing Factor Information, Zone ZONE OFFICE WHOLEBUILDING - MD OFFICE A END_A - STORY GROUND,   1.2500    
 Heating Sizing Factor Information, Zone ZONE OFFICE WHOLEBUILDING - MD OFFICE A END_A - STORY TOP,   1.2500    
 Heating Sizing Factor Information, Zone ZONE OFFICE WHOLEBUILDING - MD OFFICE A END_B - STORY GROUND,   1.2500    
 Heating Sizing Factor Information, Zone ZONE OFFICE WHOLEBUILDING - MD OFFICE A END_B - STORY TOP,   1.2500    
 Heating Sizing Factor Information, Zone ZONE OFFICE WHOLEBUILDING - MD OFFICE B  - STORY GROUND,   1.2500    
 Heating Sizing Factor Information, Zone ZONE OFFICE WHOLEBUILDING - MD OFFICE B  - STORY TOP,   1.2500    
 Heating Sizing Factor Information, Zone ZONE OFFICE WHOLEBUILDING - MD OFFICE B END_A - STORY GROUND,   1.2500    
 Heating Sizing Factor Information, Zone ZONE OFFICE WHOLEBUILDING - MD OFFICE B END_A - STORY TOP,   1.2500    
 Heating Sizing Factor Information, Zone ZONE OFFICE WHOLEBUILDING - MD OFFICE B END_B - STORY GROUND,   1.2500    
 Heating Sizing Factor Information, Zone ZONE OFFICE WHOLEBUILDING - MD OFFICE B END_B - STORY TOP,   1.2500    
 Heating Sizing Factor Information, Zone ZONE OFFICE WHOLEBUILDING - MD OFFICE C  - STORY GROUND,   1.2500    
 Heating Sizing Factor Information, Zone ZONE OFFICE WHOLEBUILDING - MD OFFICE C  - STORY TOP,   1.2500    
 Heating Sizing Factor Information, Zone ZONE OFFICE WHOLEBUILDING - MD OFFICE C END_A - STORY GROUND,   1.2500    
 Heating Sizing Factor Information, Zone ZONE OFFICE WHOLEBUILDING - MD OFFICE C END_A - STORY TOP,   1.2500    
 Heating Sizing Factor Information, Zone ZONE OFFICE WHOLEBUILDING - MD OFFICE C END_B - STORY GROUND,   1.2500    
 Heating Sizing Factor Information, Zone ZONE OFFICE WHOLEBUILDING - MD OFFICE C END_B - STORY TOP,   1.2500    
! <Cooling Sizing Factor Information>, Sizing Factor ID, Value
 Cooling Sizing Factor Information, Global,   1.1500    
 Cooling Sizing Factor Information, Zone ZONE OFFICE WHOLEBUILDING - MD OFFICE A  - STORY GROUND,   1.1500    
 Cooling Sizing Factor Information, Zone ZONE OFFICE WHOLEBUILDING - MD OFFICE A  - STORY TOP,   1.1500    
 Cooling Sizing Factor Information, Zone ZONE OFFICE WHOLEBUILDING - MD OFFICE A END_A - STORY GROUND,   1.1500    
 Cooling Sizing Factor Information, Zone ZONE OFFICE WHOLEBUILDING - MD OFFICE A END_A - STORY TOP,   1.1500    
 Cooling Sizing Factor Information, Zone ZONE OFFICE WHOLEBUILDING - MD OFFICE A END_B - STORY GROUND,   1.1500    
 Cooling Sizing Factor Information, Zone ZONE OFFICE WHOLEBUILDING - MD OFFICE A END_B - STORY TOP,   1.1500    
 Cooling Sizing Factor Information, Zone ZONE OFFICE WHOLEBUILDING - MD OFFICE B  - STORY GROUND,   1.1500    
 Cooling Sizing Factor Information, Zone ZONE OFFICE WHOLEBUILDING - MD OFFICE B  - STORY TOP,   1.1500    
 Cooling Sizing Factor Information, Zone ZONE OFFICE WHOLEBUILDING - MD OFFICE B END_A - STORY GROUND,   1.1500    
 Cooling Sizing Factor Information, Zone ZONE OFFICE WHOLEBUILDING - MD OFFICE B END_A - STORY TOP,   1.1500    
 Cooling Sizing Factor Information, Zone ZONE OFFICE WHOLEBUILDING - MD OFFICE B END_B - STORY GROUND,   1.1500    
 Cooling Sizing Factor Information, Zone ZONE OFFICE WHOLEBUILDING - MD OFFICE B END_B - STORY TOP,   1.1500    
 Cooling Sizing Factor Information, Zone ZONE OFFICE WHOLEBUILDING - MD OFFICE C  - STORY GROUND,   1.1500    
 Cooling Sizing Factor Information, Zone ZONE OFFICE WHOLEBUILDING - MD OFFICE C  - STORY TOP,   1.1500    
 Cooling Sizing Factor Information, Zone ZONE OFFICE WHOLEBUILDING - MD OFFICE C END_A - STORY GROUND,   1.1500    
 Cooling Sizing Factor Information, Zone ZONE OFFICE WHOLEBUILDING - MD OFFICE C END_A - STORY TOP,   1.1500    
 Cooling Sizing Factor Information, Zone ZONE OFFICE WHOLEBUILDING - MD OFFICE C END_B - STORY GROUND,   1.1500    
 Cooling Sizing Factor Information, Zone ZONE OFFICE WHOLEBUILDING - MD OFFICE C END_B - STORY TOP,   1.1500    
! <Sky Daylight Factors>, Sky Type, MonthAndDay, Daylighting Control Name, Enclosure Name, Window Name, Reference Point, Daylight Factor
 Sky Daylight Factors,Clear Sky,08/21,ZONE OFFICE WHOLEBUILDING - MD OFFICE A  - STORY GROUND DAYLIGHTINGCONTROLS,OFFICE WHOLEBUILDING - MD OFFICE A  - STORY GROUND,SUB SURFACE 12,OFFICE WHOLEBUILDING - MD OFFICE A  - STORY GROUND DAYLT SENSOR 1,9.3673E-002
 Sky Daylight Factors,Clear Sky,08/21,ZONE OFFICE WHOLEBUILDING - MD OFFICE A  - STORY GROUND DAYLIGHTINGCONTROLS,OFFICE WHOLEBUILDING - MD OFFICE A  - STORY GROUND,SUB SURFACE 12,OFFICE WHOLEBUILDING - MD OFFICE A  - STORY GROUND DAYLT SENSOR 2,3.8584E-002
 Sky Daylight Factors,Clear Turbid Sky,08/21,ZONE OFFICE WHOLEBUILDING - MD OFFICE A  - STORY GROUND DAYLIGHTINGCONTROLS,OFFICE WHOLEBUILDING - MD OFFICE A  - STORY GROUND,SUB SURFACE 12,OFFICE WHOLEBUILDING - MD OFFICE A  - STORY GROUND DAYLT SENSOR 1,0.1002
 Sky Daylight Factors,Clear Turbid Sky,08/21,ZONE OFFICE WHOLEBUILDING - MD OFFICE A  - STORY GROUND DAYLIGHTINGCONTROLS,OFFICE WHOLEBUILDING - MD OFFICE A  - STORY GROUND,SUB SURFACE 12,OFFICE WHOLEBUILDING - MD OFFICE A  - STORY GROUND DAYLT SENSOR 2,3.9559E-002
 Sky Daylight Factors,Intermediate Sky,08/21,ZONE OFFICE WHOLEBUILDING - MD OFFICE A  - STORY GROUND DAYLIGHTINGCONTROLS,OFFICE WHOLEBUILDING - MD OFFICE A  - STORY GROUND,SUB SURFACE 12,OFFICE WHOLEBUILDING - MD OFFICE A  - STORY GROUND DAYLT SENSOR 1,7.5618E-002
 Sky Daylight Factors,Intermediate Sky,08/21,ZONE OFFICE WHOLEBUILDING - MD OFFICE A  - STORY GROUND DAYLIGHTINGCONTROLS,OFFICE WHOLEBUILDING - MD OFFICE A  - STORY GROUND,SUB SURFACE 12,OFFICE WHOLEBUILDING - MD OFFICE A  - STORY GROUND DAYLT SENSOR 2,2.8006E-002
 Sky Daylight Factors,Overcast Sky,08/21,ZONE OFFICE WHOLEBUILDING - MD OFFICE A  - STORY GROUND DAYLIGHTINGCONTROLS,OFFICE WHOLEBUILDING - MD OFFICE A  - STORY GROUND,SUB SURFACE 12,OFFICE WHOLEBUILDING - MD OFFICE A  - STORY GROUND DAYLT SENSOR 1,3.4657E-002
 Sky Daylight Factors,Overcast Sky,08/21,ZONE OFFICE WHOLEBUILDING - MD OFFICE A  - STORY GROUND DAYLIGHTINGCONTROLS,OFFICE WHOLEBUILDING - MD OFFICE A  - STORY GROUND,SUB SURFACE 12,OFFICE WHOLEBUILDING - MD OFFICE A  - STORY GROUND DAYLT SENSOR 2,1.2656E-002
 Sky Daylight Factors,Clear Sky,08/21,ZONE OFFICE WHOLEBUILDING - MD OFFICE A  - STORY TOP DAYLIGHTINGCONTROLS,OFFICE WHOLEBUILDING - MD OFFICE A  - STORY TOP,SUB SURFACE 24,OFFICE WHOLEBUILDING - MD OFFICE A  - STORY TOP DAYLT SENSOR 1,9.2090E-002
 Sky Daylight Factors,Clear Sky,08/21,ZONE OFFICE WHOLEBUILDING - MD OFFICE A  - STORY TOP DAYLIGHTINGCONTROLS,OFFICE WHOLEBUILDING - MD OFFICE A  - STORY TOP,SUB SURFACE 24,OFFICE WHOLEBUILDING - MD OFFICE A  - STORY TOP DAYLT SENSOR 2,3.7002E-002
 Sky Daylight Factors,Clear Turbid Sky,08/21,ZONE OFFICE WHOLEBUILDING - MD OFFICE A  - STORY TOP DAYLIGHTINGCONTROLS,OFFICE WHOLEBUILDING - MD OFFICE A  - STORY TOP,SUB SURFACE 24,OFFICE WHOLEBUILDING - MD OFFICE A  - STORY TOP DAYLT SENSOR 1,9.8527E-002
 Sky Daylight Factors,Clear Turbid Sky,08/21,ZONE OFFICE WHOLEBUILDING - MD OFFICE A  - STORY TOP DAYLIGHTINGCONTROLS,OFFICE WHOLEBUILDING - MD OFFICE A  - STORY TOP,SUB SURFACE 24,OFFICE WHOLEBUILDING - MD OFFICE A  - STORY TOP DAYLT SENSOR 2,3.7893E-002
 Sky Daylight Factors,Intermediate Sky,08/21,ZONE OFFICE WHOLEBUILDING - MD OFFICE A  - STORY TOP DAYLIGHTINGCONTROLS,OFFICE WHOLEBUILDING - MD OFFICE A  - STORY TOP,SUB SURFACE 24,OFFICE WHOLEBUILDING - MD OFFICE A  - STORY TOP DAYLT SENSOR 1,7.4366E-002
 Sky Daylight Factors,Intermediate Sky,08/21,ZONE OFFICE WHOLEBUILDING - MD OFFICE A  - STORY TOP DAYLIGHTINGCONTROLS,OFFICE WHOLEBUILDING - MD OFFICE A  - STORY TOP,SUB SURFACE 24,OFFICE WHOLEBUILDING - MD OFFICE A  - STORY TOP DAYLT SENSOR 2,2.6755E-002
 Sky Daylight Factors,Overcast Sky,08/21,ZONE OFFICE WHOLEBUILDING - MD OFFICE A  - STORY TOP DAYLIGHTINGCONTROLS,OFFICE WHOLEBUILDING - MD OFFICE A  - STORY TOP,SUB SURFACE 24,OFFICE WHOLEBUILDING - MD OFFICE A  - STORY TOP DAYLT SENSOR 1,3.4035E-002
 Sky Daylight Factors,Overcast Sky,08/21,ZONE OFFICE WHOLEBUILDING - MD OFFICE A  - STORY TOP DAYLIGHTINGCONTROLS,OFFICE WHOLEBUILDING - MD OFFICE A  - STORY TOP,SUB SURFACE 24,OFFICE WHOLEBUILDING - MD OFFICE A  - STORY TOP DAYLT SENSOR 2,1.2034E-002
 Sky Daylight Factors,Clear Sky,08/21,ZONE OFFICE WHOLEBUILDING - MD OFFICE C  - STORY GROUND DAYLIGHTINGCONTROLS,OFFICE WHOLEBUILDING - MD OFFICE C  - STORY GROUND,SUB SURFACE 1,OFFICE WHOLEBUILDING - MD OFFICE C  - STORY GROUND DAYLT SENSOR 1,3.1039E-002
 Sky Daylight Factors,Clear Sky,08/21,ZONE OFFICE WHOLEBUILDING - MD OFFICE C  - STORY GROUND DAYLIGHTINGCONTROLS,OFFICE WHOLEBUILDING - MD OFFICE C  - STORY GROUND,SUB SURFACE 1,OFFICE WHOLEBUILDING - MD OFFICE C  - STORY GROUND DAYLT SENSOR 2,1.6347E-002
 Sky Daylight Factors,Clear Turbid Sky,08/21,ZONE OFFICE WHOLEBUILDING - MD OFFICE C  - STORY GROUND DAYLIGHTINGCONTROLS,OFFICE WHOLEBUILDING - MD OFFICE C  - STORY GROUND,SUB SURFACE 1,OFFICE WHOLEBUILDING - MD OFFICE C  - STORY GROUND DAYLT SENSOR 1,2.4181E-002
 Sky Daylight Factors,Clear Turbid Sky,08/21,ZONE OFFICE WHOLEBUILDING - MD OFFICE C  - STORY GROUND DAYLIGHTINGCONTROLS,OFFICE WHOLEBUILDING - MD OFFICE C  - STORY GROUND,SUB SURFACE 1,OFFICE WHOLEBUILDING - MD OFFICE C  - STORY GROUND DAYLT SENSOR 2,1.2602E-002
 Sky Daylight Factors,Intermediate Sky,08/21,ZONE OFFICE WHOLEBUILDING - MD OFFICE C  - STORY GROUND DAYLIGHTINGCONTROLS,OFFICE WHOLEBUILDING - MD OFFICE C  - STORY GROUND,SUB SURFACE 1,OFFICE WHOLEBUILDING - MD OFFICE C  - STORY GROUND DAYLT SENSOR 1,2.1181E-002
 Sky Daylight Factors,Intermediate Sky,08/21,ZONE OFFICE WHOLEBUILDING - MD OFFICE C  - STORY GROUND DAYLIGHTINGCONTROLS,OFFICE WHOLEBUILDING - MD OFFICE C  - STORY GROUND,SUB SURFACE 1,OFFICE WHOLEBUILDING - MD OFFICE C  - STORY GROUND DAYLT SENSOR 2,8.6506E-003
 Sky Daylight Factors,Overcast Sky,08/21,ZONE OFFICE WHOLEBUILDING - MD OFFICE C  - STORY GROUND DAYLIGHTINGCONTROLS,OFFICE WHOLEBUILDING - MD OFFICE C  - STORY GROUND,SUB SURFACE 1,OFFICE WHOLEBUILDING - MD OFFICE C  - STORY GROUND DAYLT SENSOR 1,3.4657E-002
 Sky Daylight Factors,Overcast Sky,08/21,ZONE OFFICE WHOLEBUILDING - MD OFFICE C  - STORY GROUND DAYLIGHTINGCONTROLS,OFFICE WHOLEBUILDING - MD OFFICE C  - STORY GROUND,SUB SURFACE 1,OFFICE WHOLEBUILDING - MD OFFICE C  - STORY GROUND DAYLT SENSOR 2,1.2656E-002
 Sky Daylight Factors,Clear Sky,08/21,ZONE OFFICE WHOLEBUILDING - MD OFFICE C  - STORY TOP DAYLIGHTINGCONTROLS,OFFICE WHOLEBUILDING - MD OFFICE C  - STORY TOP,SUB SURFACE 13,OFFICE WHOLEBUILDING - MD OFFICE C  - STORY TOP DAYLT SENSOR 1,3.0446E-002
 Sky Daylight Factors,Clear Sky,08/21,ZONE OFFICE WHOLEBUILDING - MD OFFICE C  - STORY TOP DAYLIGHTINGCONTROLS,OFFICE WHOLEBUILDING - MD OFFICE C  - STORY TOP,SUB SURFACE 13,OFFICE WHOLEBUILDING - MD OFFICE C  - STORY TOP DAYLT SENSOR 2,1.5753E-002
 Sky Daylight Factors,Clear Turbid Sky,08/21,ZONE OFFICE WHOLEBUILDING - MD OFFICE C  - STORY TOP DAYLIGHTINGCONTROLS,OFFICE WHOLEBUILDING - MD OFFICE C  - STORY TOP,SUB SURFACE 13,OFFICE WHOLEBUILDING - MD OFFICE C  - STORY TOP DAYLT SENSOR 1,2.3717E-002
 Sky Daylight Factors,Clear Turbid Sky,08/21,ZONE OFFICE WHOLEBUILDING - MD OFFICE C  - STORY TOP DAYLIGHTINGCONTROLS,OFFICE WHOLEBUILDING - MD OFFICE C  - STORY TOP,SUB SURFACE 13,OFFICE WHOLEBUILDING - MD OFFICE C  - STORY TOP DAYLT SENSOR 2,1.2138E-002
 Sky Daylight Factors,Intermediate Sky,08/21,ZONE OFFICE WHOLEBUILDING - MD OFFICE C  - STORY TOP DAYLIGHTINGCONTROLS,OFFICE WHOLEBUILDING - MD OFFICE C  - STORY TOP,SUB SURFACE 13,OFFICE WHOLEBUILDING - MD OFFICE C  - STORY TOP DAYLT SENSOR 1,2.0796E-002
 Sky Daylight Factors,Intermediate Sky,08/21,ZONE OFFICE WHOLEBUILDING - MD OFFICE C  - STORY TOP DAYLIGHTINGCONTROLS,OFFICE WHOLEBUILDING - MD OFFICE C  - STORY TOP,SUB SURFACE 13,OFFICE WHOLEBUILDING - MD OFFICE C  - STORY TOP DAYLT SENSOR 2,8.2657E-003
 Sky Daylight Factors,Overcast Sky,08/21,ZONE OFFICE WHOLEBUILDING - MD OFFICE C  - STORY TOP DAYLIGHTINGCONTROLS,OFFICE WHOLEBUILDING - MD OFFICE C  - STORY TOP,SUB SURFACE 13,OFFICE WHOLEBUILDING - MD OFFICE C  - STORY TOP DAYLT SENSOR 1,3.4035E-002
 Sky Daylight Factors,Overcast Sky,08/21,ZONE OFFICE WHOLEBUILDING - MD OFFICE C  - STORY TOP DAYLIGHTINGCONTROLS,OFFICE WHOLEBUILDING - MD OFFICE C  - STORY TOP,SUB SURFACE 13,OFFICE WHOLEBUILDING - MD OFFICE C  - STORY TOP DAYLT SENSOR 2,1.2034E-002
! <Zone Sizing Information>, Zone Name, Load Type, Calc Des Load {W}, User Des Load {W}, Calc Des Air Flow Rate {m3/s}, User Des Air Flow Rate {m3/s}, Design Day Name, Date/Time of Peak, Temperature at Peak {C}, Humidity Ratio at Peak {kgWater/kgDryAir}, Floor Area {m2}, # Occupants, Calc Outdoor Air Flow Rate {m3/s}, Calc DOAS Heat Addition Rate {W}
 Zone Sizing Information, ZONE OFFICE WHOLEBUILDING - MD OFFICE A  - STORY GROUND, Cooling, 4690.70505, 5394.31081, 0.34144, 0.39266, KODIAK AUGUST .4% CONDNS DB=>MCWB, 8/21 15:00:00, 22.60000, 8.70767E-003, 68.27491, 3.67453, 2.94811E-002, 0.00000
 Zone Sizing Information, ZONE OFFICE WHOLEBUILDING - MD OFFICE A  - STORY GROUND, Heating, 6258.39843, 7822.99804, 0.17556, 0.21945, KODIAK ANN HTG 99.6% CONDNS DB, 1/21 08:00:00, -12.80000, 1.24844E-003, 68.27491, 3.67453, 2.94811E-002, 0.00000
 Zone Sizing Information, ZONE OFFICE WHOLEBUILDING - MD OFFICE A  - STORY TOP, Cooling, 5618.14154, 6460.86278, 0.40895, 0.47030, KODIAK AUGUST .4% CONDNS DB=>MCWB, 8/21 14:10:00, 22.60000, 8.70767E-003, 68.27491, 3.67453, 2.94811E-002, 0.00000
 Zone Sizing Information, ZONE OFFICE WHOLEBUILDING - MD OFFICE A  - STORY TOP, Heating, 6850.40861, 8563.01076, 0.19219, 0.24024, KODIAK ANN HTG 99.6% CONDNS DB, 1/21 08:00:00, -12.80000, 1.24844E-003, 68.27491, 3.67453, 2.94811E-002, 0.00000
 Zone Sizing Information, ZONE OFFICE WHOLEBUILDING - MD OFFICE A END_A - STORY GROUND, Cooling, 2113.61889, 2430.66172, 0.15385, 0.17693, KODIAK AUGUST .4% CONDNS DB=>MCWB, 8/21 17:00:00, 21.71800, 8.70630E-003, 20.90318, 1.12500, 9.02599E-003, 0.00000
 Zone Sizing Information, ZONE OFFICE WHOLEBUILDING - MD OFFICE A END_A - STORY GROUND, Heating, 3378.94685, 4223.68356, 9.49060E-002, 0.11863, KODIAK ANN HTG 99.6% CONDNS DB, 1/21 08:00:00, -12.80000, 1.24844E-003, 20.90318, 1.12500, 9.02599E-003, 0.00000
 Zone Sizing Information, ZONE OFFICE WHOLEBUILDING - MD OFFICE A END_A - STORY TOP, Cooling, 2450.06552, 2817.57535, 0.17834, 0.20509, KODIAK JULY .4% CONDNS DB=>MCWB, 7/21 16:50:00, 23.50333, 8.28385E-003, 20.90318, 1.12500, 9.02599E-003, 0.00000
 Zone Sizing Information, ZONE OFFICE WHOLEBUILDING - MD OFFICE A END_A - STORY TOP, Heating, 3630.88364, 4538.60456, 0.10199, 0.12748, KODIAK ANN HTG 99.6% CONDNS DB, 1/21 08:00:00, -12.80000, 1.24844E-003, 20.90318, 1.12500, 9.02599E-003, 0.00000
 Zone Sizing Information, ZONE OFFICE WHOLEBUILDING - MD OFFICE A END_B - STORY GROUND, Cooling, 2032.37060, 2337.22619, 0.14794, 0.17013, KODIAK JULY .4% CONDNS DB=>MCWB, 7/21 11:50:00, 23.39333, 8.28368E-003, 20.90318, 1.12500, 9.02599E-003, 0.00000
 Zone Sizing Information, ZONE OFFICE WHOLEBUILDING - MD OFFICE A END_B - STORY GROUND, Heating, 3362.27534, 4202.84418, 9.44369E-002, 0.11805, KODIAK ANN HTG 99.6% CONDNS DB, 1/21 08:00:00, -12.80000, 1.24844E-003, 20.90318, 1.12500, 9.02599E-003, 0.00000
 Zone Sizing Information, ZONE OFFICE WHOLEBUILDING - MD OFFICE A END_B - STORY TOP, Cooling, 2408.28521, 2769.52800, 0.17530, 0.20159, KODIAK JULY .4% CONDNS DB=>MCWB, 7/21 11:40:00, 23.30167, 8.28354E-003, 20.90318, 1.12500, 9.02599E-003, 0.00000
 Zone Sizing Information, ZONE OFFICE WHOLEBUILDING - MD OFFICE A END_B - STORY TOP, Heating, 3610.70668, 4513.38335, 0.10142, 0.12677, KODIAK ANN HTG 99.6% CONDNS DB, 1/21 08:00:00, -12.80000, 1.24844E-003, 20.90318, 1.12500, 9.02599E-003, 0.00000
 Zone Sizing Information, ZONE OFFICE WHOLEBUILDING - MD OFFICE B  - STORY GROUND, Cooling, 3621.90264, 4165.18803, 0.25967, 0.29862, KODIAK JULY .4% CONDNS DB=>MCWB, 7/21 08:00:00, 20.13000, 8.27867E-003, 103.15178, 5.55158, 4.45409E-002, 0.00000
 Zone Sizing Information, ZONE OFFICE WHOLEBUILDING - MD OFFICE B  - STORY GROUND, Heating, 3200.30926, 4000.38657, 8.92190E-002, 0.11152, KODIAK ANN HTG 99.6% CONDNS DB, 1/21 08:00:00, -12.80000, 1.24844E-003, 103.15178, 5.55158, 4.45409E-002, 0.00000
 Zone Sizing Information, ZONE OFFICE WHOLEBUILDING - MD OFFICE B  - STORY TOP, Cooling, 3715.99249, 4273.39136, 0.26643, 0.30639, KODIAK JULY .4% CONDNS DB=>MCWB, 7/21 08:00:00, 20.13000, 8.27867E-003, 103.15178, 5.55158, 4.45409E-002, 0.00000
 Zone Sizing Information, ZONE OFFICE WHOLEBUILDING - MD OFFICE B  - STORY TOP, Heating, 3943.82252, 4929.77815, 0.10439, 0.13049, KODIAK ANN HTG 99.6% CONDNS DB, 1/21 07:00:00, -12.80000, 1.24844E-003, 103.15178, 5.55158, 4.45409E-002, 0.00000
 Zone Sizing Information, ZONE OFFICE WHOLEBUILDING - MD OFFICE B END_A - STORY GROUND, Cooling, 2375.08355, 2731.34608, 0.17288, 0.19882, KODIAK JULY .4% CONDNS DB=>MCWB, 7/21 19:50:00, 21.55083, 8.28085E-003, 31.58115, 1.69968, 1.36367E-002, 0.00000
 Zone Sizing Information, ZONE OFFICE WHOLEBUILDING - MD OFFICE B END_A - STORY GROUND, Heating, 3184.97835, 3981.22293, 8.93678E-002, 0.11171, KODIAK ANN HTG 99.6% CONDNS DB, 1/21 08:00:00, -12.80000, 1.24844E-003, 31.58115, 1.69968, 1.36367E-002, 0.00000
 Zone Sizing Information, ZONE OFFICE WHOLEBUILDING - MD OFFICE B END_A - STORY TOP, Cooling, 2915.65038, 3352.99794, 0.21223, 0.24407, KODIAK JULY .4% CONDNS DB=>MCWB, 7/21 18:30:00, 22.46750, 8.28226E-003, 31.58115, 1.69968, 1.36367E-002, 0.00000
 Zone Sizing Information, ZONE OFFICE WHOLEBUILDING - MD OFFICE B END_A - STORY TOP, Heating, 3460.32677, 4325.40846, 9.71035E-002, 0.12138, KODIAK ANN HTG 99.6% CONDNS DB, 1/21 08:00:00, -12.80000, 1.24844E-003, 31.58115, 1.69968, 1.36367E-002, 0.00000
 Zone Sizing Information, ZONE OFFICE WHOLEBUILDING - MD OFFICE B END_B - STORY GROUND, Cooling, 2374.60024, 2730.79028, 0.17285, 0.19878, KODIAK JULY .4% CONDNS DB=>MCWB, 7/21 10:10:00, 22.24750, 8.28192E-003, 31.58115, 1.69968, 1.36367E-002, 0.00000
 Zone Sizing Information, ZONE OFFICE WHOLEBUILDING - MD OFFICE B END_B - STORY GROUND, Heating, 3161.32669, 3951.65836, 8.87026E-002, 0.11088, KODIAK ANN HTG 99.6% CONDNS DB, 1/21 08:00:00, -12.80000, 1.24844E-003, 31.58115, 1.69968, 1.36367E-002, 0.00000
 Zone Sizing Information, ZONE OFFICE WHOLEBUILDING - MD OFFICE B END_B - STORY TOP, Cooling, 2912.72007, 3349.62809, 0.21202, 0.24382, KODIAK JULY .4% CONDNS DB=>MCWB, 7/21 09:20:00, 21.48667, 8.28075E-003, 31.58115, 1.69968, 1.36367E-002, 0.00000
 Zone Sizing Information, ZONE OFFICE WHOLEBUILDING - MD OFFICE B END_B - STORY TOP, Heating, 3431.73782, 4289.67227, 9.62989E-002, 0.12037, KODIAK ANN HTG 99.6% CONDNS DB, 1/21 08:00:00, -12.80000, 1.24844E-003, 31.58115, 1.69968, 1.36367E-002, 0.00000
 Zone Sizing Information, ZONE OFFICE WHOLEBUILDING - MD OFFICE C  - STORY GROUND, Cooling, 2220.44165, 2553.50789, 0.15903, 0.18288, KODIAK JULY .4% CONDNS DB=>MCWB, 7/21 08:00:00, 20.13000, 8.27867E-003, 68.27491, 3.67453, 2.94811E-002, 0.00000
 Zone Sizing Information, ZONE OFFICE WHOLEBUILDING - MD OFFICE C  - STORY GROUND, Heating, 6302.38956, 7877.98695, 0.17680, 0.22100, KODIAK ANN HTG 99.6% CONDNS DB, 1/21 08:00:00, -12.80000, 1.24844E-003, 68.27491, 3.67453, 2.94811E-002, 0.00000
 Zone Sizing Information, ZONE OFFICE WHOLEBUILDING - MD OFFICE C  - STORY TOP, Cooling, 2519.22473, 2897.10844, 0.18060, 0.20769, KODIAK JULY .4% CONDNS DB=>MCWB, 7/21 08:00:00, 20.13000, 8.27867E-003, 68.27491, 3.67453, 2.94811E-002, 0.00000
 Zone Sizing Information, ZONE OFFICE WHOLEBUILDING - MD OFFICE C  - STORY TOP, Heating, 6904.18270, 8630.22837, 0.19371, 0.24213, KODIAK ANN HTG 99.6% CONDNS DB, 1/21 08:00:00, -12.80000, 1.24844E-003, 68.27491, 3.67453, 2.94811E-002, 0.00000
 Zone Sizing Information, ZONE OFFICE WHOLEBUILDING - MD OFFICE C END_A - STORY GROUND, Cooling, 1620.89151, 1864.02524, 0.11799, 0.13568, KODIAK JULY .4% CONDNS DB=>MCWB, 7/21 20:20:00, 21.28500, 8.28044E-003, 20.90318, 1.12500, 9.02599E-003, 0.00000
 Zone Sizing Information, ZONE OFFICE WHOLEBUILDING - MD OFFICE C END_A - STORY GROUND, Heating, 3395.52667, 4244.40834, 9.53726E-002, 0.11922, KODIAK ANN HTG 99.6% CONDNS DB, 1/21 08:00:00, -12.80000, 1.24844E-003, 20.90318, 1.12500, 9.02599E-003, 0.00000
 Zone Sizing Information, ZONE OFFICE WHOLEBUILDING - MD OFFICE C END_A - STORY TOP, Cooling, 1984.50350, 2282.17903, 0.14445, 0.16612, KODIAK JULY .4% CONDNS DB=>MCWB, 7/21 18:30:00, 22.46750, 8.28226E-003, 20.90318, 1.12500, 9.02599E-003, 0.00000
 Zone Sizing Information, ZONE OFFICE WHOLEBUILDING - MD OFFICE C END_A - STORY TOP, Heating, 3650.97611, 4563.72013, 0.10255, 0.12819, KODIAK ANN HTG 99.6% CONDNS DB, 1/21 08:00:00, -12.80000, 1.24844E-003, 20.90318, 1.12500, 9.02599E-003, 0.00000
 Zone Sizing Information, ZONE OFFICE WHOLEBUILDING - MD OFFICE C END_B - STORY GROUND, Cooling, 1535.35376, 1765.65682, 0.11176, 0.12852, KODIAK JULY .4% CONDNS DB=>MCWB, 7/21 10:30:00, 22.52250, 8.28234E-003, 20.90318, 1.12500, 9.02599E-003, 0.00000
 Zone Sizing Information, ZONE OFFICE WHOLEBUILDING - MD OFFICE C END_B - STORY GROUND, Heating, 3378.86805, 4223.58506, 9.49038E-002, 0.11863, KODIAK ANN HTG 99.6% CONDNS DB, 1/21 08:00:00, -12.80000, 1.24844E-003, 20.90318, 1.12500, 9.02599E-003, 0.00000
 Zone Sizing Information, ZONE OFFICE WHOLEBUILDING - MD OFFICE C END_B - STORY TOP, Cooling, 1940.06316, 2231.07263, 0.14122, 0.16240, KODIAK JULY .4% CONDNS DB=>MCWB, 7/21 09:50:00, 21.95417, 8.28147E-003, 20.90318, 1.12500, 9.02599E-003, 0.00000
 Zone Sizing Information, ZONE OFFICE WHOLEBUILDING - MD OFFICE C END_B - STORY TOP, Heating, 3630.82120, 4538.52651, 0.10198, 0.12748, KODIAK ANN HTG 99.6% CONDNS DB, 1/21 08:00:00, -12.80000, 1.24844E-003, 20.90318, 1.12500, 9.02599E-003, 0.00000
! <System Sizing Information>, System Name, Load Type, Peak Load Kind, User Design Capacity, Calc Des Air Flow Rate [m3/s], User Des Air Flow Rate [m3/s], Design Day Name, Date/Time of Peak
 System Sizing Information, ZONE OFFICE WHOLEBUILDING - MD OFFICE A  - STORY GROUND PSZ-AC, Cooling, Sensible, 5261.17, 0.39266, 0.39266, KODIAK AUGUST .4% CONDNS DB=>MCWB, 8/21 05:00:00
 System Sizing Information, ZONE OFFICE WHOLEBUILDING - MD OFFICE A  - STORY GROUND PSZ-AC, Heating, Sensible, 8893.06, 0.21945, 0.21945, KODIAK ANN HTG 99.6% CONDNS DB, 1/21 08:00:00
 System Sizing Information, ZONE OFFICE WHOLEBUILDING - MD OFFICE A  - STORY TOP PSZ-AC, Cooling, Sensible, 6311.23, 0.47030, 0.47030, KODIAK AUGUST .4% CONDNS DB=>MCWB, 8/21 05:00:00
 System Sizing Information, ZONE OFFICE WHOLEBUILDING - MD OFFICE A  - STORY TOP PSZ-AC, Heating, Sensible, 9622.90, 0.24024, 0.24024, KODIAK ANN HTG 99.6% CONDNS DB, 1/21 08:00:00
 System Sizing Information, ZONE OFFICE WHOLEBUILDING - MD OFFICE A END_A - STORY GROUND PSZ-AC, Cooling, Sensible, 2368.25, 0.17693, 0.17693, KODIAK AUGUST .4% CONDNS DB=>MCWB, 8/21 05:00:00
 System Sizing Information, ZONE OFFICE WHOLEBUILDING - MD OFFICE A END_A - STORY GROUND PSZ-AC, Heating, Sensible, 4521.60, 0.11863, 0.11863, KODIAK ANN HTG 99.6% CONDNS DB, 1/21 08:00:00
 System Sizing Information, ZONE OFFICE WHOLEBUILDING - MD OFFICE A END_A - STORY TOP PSZ-AC, Cooling, Sensible, 2768.61, 0.20509, 0.20509, KODIAK JULY .4% CONDNS DB=>MCWB, 7/21 05:00:00
 System Sizing Information, ZONE OFFICE WHOLEBUILDING - MD OFFICE A END_A - STORY TOP PSZ-AC, Heating, Sensible, 4831.74, 0.12748, 0.12748, KODIAK ANN HTG 99.6% CONDNS DB, 1/21 08:00:00
 System Sizing Information, ZONE OFFICE WHOLEBUILDING - MD OFFICE A END_B - STORY GROUND PSZ-AC, Cooling, Sensible, 2295.26, 0.17013, 0.17013, KODIAK JULY .4% CONDNS DB=>MCWB, 7/21 05:00:00
 System Sizing Information, ZONE OFFICE WHOLEBUILDING - MD OFFICE A END_B - STORY GROUND PSZ-AC, Heating, Sensible, 4501.06, 0.11805, 0.11805, KODIAK ANN HTG 99.6% CONDNS DB, 1/21 08:00:00
 System Sizing Information, ZONE OFFICE WHOLEBUILDING - MD OFFICE A END_B - STORY TOP PSZ-AC, Cooling, Sensible, 2719.11, 0.20159, 0.20159, KODIAK JULY .4% CONDNS DB=>MCWB, 7/21 05:00:00
 System Sizing Information, ZONE OFFICE WHOLEBUILDING - MD OFFICE A END_B - STORY TOP PSZ-AC, Heating, Sensible, 4806.88, 0.12677, 0.12677, KODIAK ANN HTG 99.6% CONDNS DB, 1/21 08:00:00
 System Sizing Information, ZONE OFFICE WHOLEBUILDING - MD OFFICE B  - STORY GROUND PSZ-AC, Cooling, Sensible, 3848.11, 0.29862, 0.29862, KODIAK JULY .4% CONDNS DB=>MCWB, 7/21 05:00:00
 System Sizing Information, ZONE OFFICE WHOLEBUILDING - MD OFFICE B  - STORY GROUND PSZ-AC, Heating, Sensible, 5726.00, 0.11152, 0.11152, KODIAK ANN HTG 99.6% CONDNS DB, 1/21 08:00:00
 System Sizing Information, ZONE OFFICE WHOLEBUILDING - MD OFFICE B  - STORY TOP PSZ-AC, Cooling, Sensible, 3954.24, 0.30639, 0.30639, KODIAK JULY .4% CONDNS DB=>MCWB, 7/21 05:00:00
 System Sizing Information, ZONE OFFICE WHOLEBUILDING - MD OFFICE B  - STORY TOP PSZ-AC, Heating, Sensible, 6578.34, 0.13588, 0.13588, KODIAK ANN HTG 99.6% CONDNS DB, 1/21 08:00:00
 System Sizing Information, ZONE OFFICE WHOLEBUILDING - MD OFFICE B END_A - STORY GROUND PSZ-AC, Cooling, Sensible, 2648.86, 0.19882, 0.19882, KODIAK JULY .4% CONDNS DB=>MCWB, 7/21 05:00:00
 System Sizing Information, ZONE OFFICE WHOLEBUILDING - MD OFFICE B END_A - STORY GROUND PSZ-AC, Heating, Sensible, 4471.46, 0.11171, 0.11171, KODIAK ANN HTG 99.6% CONDNS DB, 1/21 08:00:00
 System Sizing Information, ZONE OFFICE WHOLEBUILDING - MD OFFICE B END_A - STORY TOP PSZ-AC, Cooling, Sensible, 3275.97, 0.24407, 0.24407, KODIAK JULY .4% CONDNS DB=>MCWB, 7/21 05:00:00
 System Sizing Information, ZONE OFFICE WHOLEBUILDING - MD OFFICE B END_A - STORY TOP PSZ-AC, Heating, Sensible, 4805.13, 0.12138, 0.12138, KODIAK ANN HTG 99.6% CONDNS DB, 1/21 08:00:00
 System Sizing Information, ZONE OFFICE WHOLEBUILDING - MD OFFICE B END_B - STORY GROUND PSZ-AC, Cooling, Sensible, 2660.71, 0.19878, 0.19878, KODIAK JULY .4% CONDNS DB=>MCWB, 7/21 05:00:00
 System Sizing Information, ZONE OFFICE WHOLEBUILDING - MD OFFICE B END_B - STORY GROUND PSZ-AC, Heating, Sensible, 4442.28, 0.11088, 0.11088, KODIAK ANN HTG 99.6% CONDNS DB, 1/21 08:00:00
 System Sizing Information, ZONE OFFICE WHOLEBUILDING - MD OFFICE B END_B - STORY TOP PSZ-AC, Cooling, Sensible, 3258.39, 0.24382, 0.24382, KODIAK JULY .4% CONDNS DB=>MCWB, 7/21 05:00:00
 System Sizing Information, ZONE OFFICE WHOLEBUILDING - MD OFFICE B END_B - STORY TOP PSZ-AC, Heating, Sensible, 4769.92, 0.12037, 0.12037, KODIAK ANN HTG 99.6% CONDNS DB, 1/21 08:00:00
 System Sizing Information, ZONE OFFICE WHOLEBUILDING - MD OFFICE C  - STORY GROUND PSZ-AC, Cooling, Sensible, 2346.15, 0.18288, 0.18288, KODIAK JULY .4% CONDNS DB=>MCWB, 7/21 05:00:00
 System Sizing Information, ZONE OFFICE WHOLEBUILDING - MD OFFICE C  - STORY GROUND PSZ-AC, Heating, Sensible, 8947.35, 0.22100, 0.22100, KODIAK ANN HTG 99.6% CONDNS DB, 1/21 08:00:00
 System Sizing Information, ZONE OFFICE WHOLEBUILDING - MD OFFICE C  - STORY TOP PSZ-AC, Cooling, Sensible, 2684.25, 0.20769, 0.20769, KODIAK JULY .4% CONDNS DB=>MCWB, 7/21 05:00:00
 System Sizing Information, ZONE OFFICE WHOLEBUILDING - MD OFFICE C  - STORY TOP PSZ-AC, Heating, Sensible, 9689.23, 0.24213, 0.24213, KODIAK ANN HTG 99.6% CONDNS DB, 1/21 08:00:00
 System Sizing Information, ZONE OFFICE WHOLEBUILDING - MD OFFICE C END_A - STORY GROUND PSZ-AC, Cooling, Sensible, 1805.67, 0.13568, 0.13568, KODIAK JULY .4% CONDNS DB=>MCWB, 7/21 05:00:00
 System Sizing Information, ZONE OFFICE WHOLEBUILDING - MD OFFICE C END_A - STORY GROUND PSZ-AC, Heating, Sensible, 4542.02, 0.11922, 0.11922, KODIAK ANN HTG 99.6% CONDNS DB, 1/21 08:00:00
 System Sizing Information, ZONE OFFICE WHOLEBUILDING - MD OFFICE C END_A - STORY TOP PSZ-AC, Cooling, Sensible, 2231.11, 0.16612, 0.16612, KODIAK JULY .4% CONDNS DB=>MCWB, 7/21 05:00:00
 System Sizing Information, ZONE OFFICE WHOLEBUILDING - MD OFFICE C END_A - STORY TOP PSZ-AC, Heating, Sensible, 4856.49, 0.12819, 0.12819, KODIAK ANN HTG 99.6% CONDNS DB, 1/21 08:00:00
 System Sizing Information, ZONE OFFICE WHOLEBUILDING - MD OFFICE C END_B - STORY GROUND PSZ-AC, Cooling, Sensible, 1723.48, 0.12852, 0.12852, KODIAK JULY .4% CONDNS DB=>MCWB, 7/21 05:00:00
 System Sizing Information, ZONE OFFICE WHOLEBUILDING - MD OFFICE C END_B - STORY GROUND PSZ-AC, Heating, Sensible, 4521.50, 0.11863, 0.11863, KODIAK ANN HTG 99.6% CONDNS DB, 1/21 08:00:00
 System Sizing Information, ZONE OFFICE WHOLEBUILDING - MD OFFICE C END_B - STORY TOP PSZ-AC, Cooling, Sensible, 2174.32, 0.16240, 0.16240, KODIAK JULY .4% CONDNS DB=>MCWB, 7/21 05:00:00
 System Sizing Information, ZONE OFFICE WHOLEBUILDING - MD OFFICE C END_B - STORY TOP PSZ-AC, Heating, Sensible, 4831.66, 0.12748, 0.12748, KODIAK ANN HTG 99.6% CONDNS DB, 1/21 08:00:00
! <Component Sizing Information>, Component Type, Component Name, Input Field Description, Value
 Component Sizing Information, AirTerminal:SingleDuct:ConstantVolume:NoReheat, ZONE OFFICE WHOLEBUILDING - MD OFFICE A  - STORY GROUND PSZ-AC DIFFUSER, Design Size Maximum Air Flow Rate [m3/s], 0.39266
 Component Sizing Information, AirTerminal:SingleDuct:ConstantVolume:NoReheat, ZONE OFFICE WHOLEBUILDING - MD OFFICE A  - STORY TOP PSZ-AC DIFFUSER, Design Size Maximum Air Flow Rate [m3/s], 0.47030
 Component Sizing Information, AirTerminal:SingleDuct:ConstantVolume:NoReheat, ZONE OFFICE WHOLEBUILDING - MD OFFICE A END_A - STORY GROUND PSZ-AC DIFFUSER, Design Size Maximum Air Flow Rate [m3/s], 0.17693
 Component Sizing Information, AirTerminal:SingleDuct:ConstantVolume:NoReheat, ZONE OFFICE WHOLEBUILDING - MD OFFICE A END_A - STORY TOP PSZ-AC DIFFUSER, Design Size Maximum Air Flow Rate [m3/s], 0.20509
 Component Sizing Information, AirTerminal:SingleDuct:ConstantVolume:NoReheat, ZONE OFFICE WHOLEBUILDING - MD OFFICE A END_B - STORY GROUND PSZ-AC DIFFUSER, Design Size Maximum Air Flow Rate [m3/s], 0.17013
 Component Sizing Information, AirTerminal:SingleDuct:ConstantVolume:NoReheat, ZONE OFFICE WHOLEBUILDING - MD OFFICE A END_B - STORY TOP PSZ-AC DIFFUSER, Design Size Maximum Air Flow Rate [m3/s], 0.20159
 Component Sizing Information, AirTerminal:SingleDuct:ConstantVolume:NoReheat, ZONE OFFICE WHOLEBUILDING - MD OFFICE B  - STORY GROUND PSZ-AC DIFFUSER, Design Size Maximum Air Flow Rate [m3/s], 0.29862
 Component Sizing Information, AirTerminal:SingleDuct:ConstantVolume:NoReheat, ZONE OFFICE WHOLEBUILDING - MD OFFICE B  - STORY TOP PSZ-AC DIFFUSER, Design Size Maximum Air Flow Rate [m3/s], 0.30639
 Component Sizing Information, AirTerminal:SingleDuct:ConstantVolume:NoReheat, ZONE OFFICE WHOLEBUILDING - MD OFFICE B END_A - STORY GROUND PSZ-AC DIFFUSER, Design Size Maximum Air Flow Rate [m3/s], 0.19882
 Component Sizing Information, AirTerminal:SingleDuct:ConstantVolume:NoReheat, ZONE OFFICE WHOLEBUILDING - MD OFFICE B END_A - STORY TOP PSZ-AC DIFFUSER, Design Size Maximum Air Flow Rate [m3/s], 0.24407
 Component Sizing Information, AirTerminal:SingleDuct:ConstantVolume:NoReheat, ZONE OFFICE WHOLEBUILDING - MD OFFICE B END_B - STORY GROUND PSZ-AC DIFFUSER, Design Size Maximum Air Flow Rate [m3/s], 0.19878
 Component Sizing Information, AirTerminal:SingleDuct:ConstantVolume:NoReheat, ZONE OFFICE WHOLEBUILDING - MD OFFICE B END_B - STORY TOP PSZ-AC DIFFUSER, Design Size Maximum Air Flow Rate [m3/s], 0.24382
 Component Sizing Information, AirTerminal:SingleDuct:ConstantVolume:NoReheat, ZONE OFFICE WHOLEBUILDING - MD OFFICE C  - STORY GROUND PSZ-AC DIFFUSER, Design Size Maximum Air Flow Rate [m3/s], 0.22100
 Component Sizing Information, AirTerminal:SingleDuct:ConstantVolume:NoReheat, ZONE OFFICE WHOLEBUILDING - MD OFFICE C  - STORY TOP PSZ-AC DIFFUSER, Design Size Maximum Air Flow Rate [m3/s], 0.24213
 Component Sizing Information, AirTerminal:SingleDuct:ConstantVolume:NoReheat, ZONE OFFICE WHOLEBUILDING - MD OFFICE C END_A - STORY GROUND PSZ-AC DIFFUSER, Design Size Maximum Air Flow Rate [m3/s], 0.13568
 Component Sizing Information, AirTerminal:SingleDuct:ConstantVolume:NoReheat, ZONE OFFICE WHOLEBUILDING - MD OFFICE C END_A - STORY TOP PSZ-AC DIFFUSER, Design Size Maximum Air Flow Rate [m3/s], 0.16612
 Component Sizing Information, AirTerminal:SingleDuct:ConstantVolume:NoReheat, ZONE OFFICE WHOLEBUILDING - MD OFFICE C END_B - STORY GROUND PSZ-AC DIFFUSER, Design Size Maximum Air Flow Rate [m3/s], 0.12852
 Component Sizing Information, AirTerminal:SingleDuct:ConstantVolume:NoReheat, ZONE OFFICE WHOLEBUILDING - MD OFFICE C END_B - STORY TOP PSZ-AC DIFFUSER, Design Size Maximum Air Flow Rate [m3/s], 0.16240
 Component Sizing Information, AirLoopHVAC, ZONE OFFICE WHOLEBUILDING - MD OFFICE A  - STORY GROUND PSZ-AC, Sum of Air Terminal Maximum Heating Flow Rates [m3/s], 0.39266
 Component Sizing Information, AirLoopHVAC, ZONE OFFICE WHOLEBUILDING - MD OFFICE A  - STORY GROUND PSZ-AC, Sum of Air Terminal Minimum Heating Flow Rates [m3/s], 0.39266
 Component Sizing Information, AirLoopHVAC, ZONE OFFICE WHOLEBUILDING - MD OFFICE A  - STORY GROUND PSZ-AC, Sum of Air Terminal Maximum Flow Rates [m3/s], 0.39266
 Component Sizing Information, AirLoopHVAC, ZONE OFFICE WHOLEBUILDING - MD OFFICE A  - STORY GROUND PSZ-AC, Adjusted Heating Design Air Flow Rate [m3/s], 0.39266
 Component Sizing Information, AirLoopHVAC, ZONE OFFICE WHOLEBUILDING - MD OFFICE A  - STORY GROUND PSZ-AC, Adjusted Cooling Design Air Flow Rate [m3/s], 0.39266
 Component Sizing Information, AirLoopHVAC, ZONE OFFICE WHOLEBUILDING - MD OFFICE A  - STORY GROUND PSZ-AC, Adjusted Main Design Air Flow Rate [m3/s], 0.39266
 Component Sizing Information, AirLoopHVAC, ZONE OFFICE WHOLEBUILDING - MD OFFICE A  - STORY GROUND PSZ-AC, User Heating Air Flow Ratio [], 1.00000
 Component Sizing Information, AirLoopHVAC, ZONE OFFICE WHOLEBUILDING - MD OFFICE A  - STORY GROUND PSZ-AC, Calculated Heating Air Flow Ratio [], 1.00000
 Component Sizing Information, AirLoopHVAC, ZONE OFFICE WHOLEBUILDING - MD OFFICE A  - STORY TOP PSZ-AC, Sum of Air Terminal Maximum Heating Flow Rates [m3/s], 0.47030
 Component Sizing Information, AirLoopHVAC, ZONE OFFICE WHOLEBUILDING - MD OFFICE A  - STORY TOP PSZ-AC, Sum of Air Terminal Minimum Heating Flow Rates [m3/s], 0.47030
 Component Sizing Information, AirLoopHVAC, ZONE OFFICE WHOLEBUILDING - MD OFFICE A  - STORY TOP PSZ-AC, Sum of Air Terminal Maximum Flow Rates [m3/s], 0.47030
 Component Sizing Information, AirLoopHVAC, ZONE OFFICE WHOLEBUILDING - MD OFFICE A  - STORY TOP PSZ-AC, Adjusted Heating Design Air Flow Rate [m3/s], 0.47030
 Component Sizing Information, AirLoopHVAC, ZONE OFFICE WHOLEBUILDING - MD OFFICE A  - STORY TOP PSZ-AC, Adjusted Cooling Design Air Flow Rate [m3/s], 0.47030
 Component Sizing Information, AirLoopHVAC, ZONE OFFICE WHOLEBUILDING - MD OFFICE A  - STORY TOP PSZ-AC, Adjusted Main Design Air Flow Rate [m3/s], 0.47030
 Component Sizing Information, AirLoopHVAC, ZONE OFFICE WHOLEBUILDING - MD OFFICE A  - STORY TOP PSZ-AC, User Heating Air Flow Ratio [], 1.00000
 Component Sizing Information, AirLoopHVAC, ZONE OFFICE WHOLEBUILDING - MD OFFICE A  - STORY TOP PSZ-AC, Calculated Heating Air Flow Ratio [], 1.00000
 Component Sizing Information, AirLoopHVAC, ZONE OFFICE WHOLEBUILDING - MD OFFICE A END_A - STORY GROUND PSZ-AC, Sum of Air Terminal Maximum Heating Flow Rates [m3/s], 0.17693
 Component Sizing Information, AirLoopHVAC, ZONE OFFICE WHOLEBUILDING - MD OFFICE A END_A - STORY GROUND PSZ-AC, Sum of Air Terminal Minimum Heating Flow Rates [m3/s], 0.17693
 Component Sizing Information, AirLoopHVAC, ZONE OFFICE WHOLEBUILDING - MD OFFICE A END_A - STORY GROUND PSZ-AC, Sum of Air Terminal Maximum Flow Rates [m3/s], 0.17693
 Component Sizing Information, AirLoopHVAC, ZONE OFFICE WHOLEBUILDING - MD OFFICE A END_A - STORY GROUND PSZ-AC, Adjusted Heating Design Air Flow Rate [m3/s], 0.17693
 Component Sizing Information, AirLoopHVAC, ZONE OFFICE WHOLEBUILDING - MD OFFICE A END_A - STORY GROUND PSZ-AC, Adjusted Cooling Design Air Flow Rate [m3/s], 0.17693
 Component Sizing Information, AirLoopHVAC, ZONE OFFICE WHOLEBUILDING - MD OFFICE A END_A - STORY GROUND PSZ-AC, Adjusted Main Design Air Flow Rate [m3/s], 0.17693
 Component Sizing Information, AirLoopHVAC, ZONE OFFICE WHOLEBUILDING - MD OFFICE A END_A - STORY GROUND PSZ-AC, User Heating Air Flow Ratio [], 1.00000
 Component Sizing Information, AirLoopHVAC, ZONE OFFICE WHOLEBUILDING - MD OFFICE A END_A - STORY GROUND PSZ-AC, Calculated Heating Air Flow Ratio [], 1.00000
 Component Sizing Information, AirLoopHVAC, ZONE OFFICE WHOLEBUILDING - MD OFFICE A END_A - STORY TOP PSZ-AC, Sum of Air Terminal Maximum Heating Flow Rates [m3/s], 0.20509
 Component Sizing Information, AirLoopHVAC, ZONE OFFICE WHOLEBUILDING - MD OFFICE A END_A - STORY TOP PSZ-AC, Sum of Air Terminal Minimum Heating Flow Rates [m3/s], 0.20509
 Component Sizing Information, AirLoopHVAC, ZONE OFFICE WHOLEBUILDING - MD OFFICE A END_A - STORY TOP PSZ-AC, Sum of Air Terminal Maximum Flow Rates [m3/s], 0.20509
 Component Sizing Information, AirLoopHVAC, ZONE OFFICE WHOLEBUILDING - MD OFFICE A END_A - STORY TOP PSZ-AC, Adjusted Heating Design Air Flow Rate [m3/s], 0.20509
 Component Sizing Information, AirLoopHVAC, ZONE OFFICE WHOLEBUILDING - MD OFFICE A END_A - STORY TOP PSZ-AC, Adjusted Cooling Design Air Flow Rate [m3/s], 0.20509
 Component Sizing Information, AirLoopHVAC, ZONE OFFICE WHOLEBUILDING - MD OFFICE A END_A - STORY TOP PSZ-AC, Adjusted Main Design Air Flow Rate [m3/s], 0.20509
 Component Sizing Information, AirLoopHVAC, ZONE OFFICE WHOLEBUILDING - MD OFFICE A END_A - STORY TOP PSZ-AC, User Heating Air Flow Ratio [], 1.00000
 Component Sizing Information, AirLoopHVAC, ZONE OFFICE WHOLEBUILDING - MD OFFICE A END_A - STORY TOP PSZ-AC, Calculated Heating Air Flow Ratio [], 1.00000
 Component Sizing Information, AirLoopHVAC, ZONE OFFICE WHOLEBUILDING - MD OFFICE A END_B - STORY GROUND PSZ-AC, Sum of Air Terminal Maximum Heating Flow Rates [m3/s], 0.17013
 Component Sizing Information, AirLoopHVAC, ZONE OFFICE WHOLEBUILDING - MD OFFICE A END_B - STORY GROUND PSZ-AC, Sum of Air Terminal Minimum Heating Flow Rates [m3/s], 0.17013
[...]
 Component Sizing Information, Coil:Cooling:DX:SingleSpeed, ZONE OFFICE WHOLEBUILDING - MD OFFICE C END_A - STORY GROUND PSZ-AC 1SPD DX AC CLG COIL 8KBTU/HR 14.0SEER, Design Size Gross Rated Sensible Heat Ratio, 0.80066
 DX Cooling Coil Standard Rating Information, Coil:Cooling:DX:SingleSpeed, ZONE OFFICE WHOLEBUILDING - MD OFFICE C END_A - STORY GROUND PSZ-AC 1SPD DX AC CLG COIL 8KBTU/HR 14.0SEER, 2139.7, 3.29, 11.22, 11.10, 11.10, 10.96
 DX Cooling Coil Standard Rating Information, Coil:Cooling:DX:SingleSpeed, ZONE OFFICE WHOLEBUILDING - MD OFFICE C END_A - STORY GROUND PSZ-AC 1SPD DX AC CLG COIL 8KBTU/HR 14.0SEER, 2117.8, 3.15, 10.75, 10.61, 10.91,  
 Component Sizing Information, Coil:Heating:Fuel, ZONE OFFICE WHOLEBUILDING - MD OFFICE C END_A - STORY GROUND PSZ-AC GAS HTG COIL 17KBTU/HR 0.8 THERMAL EFF, Design Size Nominal Capacity [W], 5118.71245
 Component Sizing Information, Fan:OnOff, ZONE OFFICE WHOLEBUILDING - MD OFFICE C END_A - STORY GROUND PSZ-AC FAN, Design Size Maximum Flow Rate [m3/s], 0.13568
 Component Sizing Information, Coil:Heating:Electric, ZONE OFFICE WHOLEBUILDING - MD OFFICE C END_A - STORY GROUND PSZ-AC NO HEAT, User-Specified Nominal Capacity [W], 0.00000
 Component Sizing Information, Controller:OutdoorAir, ZONE OFFICE WHOLEBUILDING - MD OFFICE C END_A - STORY TOP PSZ-AC OA SYSTEM CONTROLLER, Maximum Outdoor Air Flow Rate [m3/s], 0.16612
 Component Sizing Information, Controller:OutdoorAir, ZONE OFFICE WHOLEBUILDING - MD OFFICE C END_A - STORY TOP PSZ-AC OA SYSTEM CONTROLLER, Minimum Outdoor Air Flow Rate [m3/s], 9.02599E-003
 Component Sizing Information, AirLoopHVAC:UnitarySystem, ZONE OFFICE WHOLEBUILDING - MD OFFICE C END_A - STORY TOP PSZ-AC UNITARY AC, Design Size Supply Air Flow Rate [m3/s], 0.16612
 Component Sizing Information, AirLoopHVAC:UnitarySystem, ZONE OFFICE WHOLEBUILDING - MD OFFICE C END_A - STORY TOP PSZ-AC UNITARY AC, Design Size Heating Supply Air Flow Rate [m3/s], 0.16612
 Component Sizing Information, AirLoopHVAC:UnitarySystem, ZONE OFFICE WHOLEBUILDING - MD OFFICE C END_A - STORY TOP PSZ-AC UNITARY AC, Design Size Cooling Supply Air Flow Rate [m3/s], 0.16612
 Component Sizing Information, AirLoopHVAC:UnitarySystem, ZONE OFFICE WHOLEBUILDING - MD OFFICE C END_A - STORY TOP PSZ-AC UNITARY AC, User-Specified No Load Supply Air Flow Rate [m3/s], 0.00000
 Component Sizing Information, AirLoopHVAC:UnitarySystem, ZONE OFFICE WHOLEBUILDING - MD OFFICE C END_A - STORY TOP PSZ-AC UNITARY AC, Design Size Nominal Cooling Capacity [W], 2749.87883
 Component Sizing Information, AirLoopHVAC:UnitarySystem, ZONE OFFICE WHOLEBUILDING - MD OFFICE C END_A - STORY TOP PSZ-AC UNITARY AC, Design Size Nominal Heating Capacity [W], 6184.90623
 Component Sizing Information, AirLoopHVAC:UnitarySystem, ZONE OFFICE WHOLEBUILDING - MD OFFICE C END_A - STORY TOP PSZ-AC UNITARY AC, Design Size Maximum Supply Air Temperature [C], 50.00000
 Component Sizing Information, AirLoopHVAC:UnitarySystem, ZONE OFFICE WHOLEBUILDING - MD OFFICE C END_A - STORY TOP PSZ-AC UNITARY AC, User-Specified Maximum Supply Air Temperature [C], 80.00000
 Component Sizing Information, AirLoopHVAC:UnitarySystem, ZONE OFFICE WHOLEBUILDING - MD OFFICE C END_A - STORY TOP PSZ-AC UNITARY AC, User-Specified Supplemental Heating Coil Nominal Capacity [W], 0.00000
 Component Sizing Information, AirLoopHVAC:UnitarySystem, ZONE OFFICE WHOLEBUILDING - MD OFFICE C END_A - STORY TOP PSZ-AC UNITARY AC, Fraction of Supply Air Flow That Goes Through the Controlling Zone, 1.00000
 Component Sizing Information, Coil:Cooling:DX:SingleSpeed, ZONE OFFICE WHOLEBUILDING - MD OFFICE C END_A - STORY TOP PSZ-AC 1SPD DX AC CLG COIL 9KBTU/HR 14.0SEER, Design Size Rated Air Flow Rate [m3/s], 0.16612
 Component Sizing Information, Coil:Cooling:DX:SingleSpeed, ZONE OFFICE WHOLEBUILDING - MD OFFICE C END_A - STORY TOP PSZ-AC 1SPD DX AC CLG COIL 9KBTU/HR 14.0SEER, Design Size Gross Rated Total Cooling Capacity [W], 2749.87883
 Component Sizing Information, Coil:Cooling:DX:SingleSpeed, ZONE OFFICE WHOLEBUILDING - MD OFFICE C END_A - STORY TOP PSZ-AC 1SPD DX AC CLG COIL 9KBTU/HR 14.0SEER, Design Size Gross Rated Sensible Heat Ratio, 0.80066
 DX Cooling Coil Standard Rating Information, Coil:Cooling:DX:SingleSpeed, ZONE OFFICE WHOLEBUILDING - MD OFFICE C END_A - STORY TOP PSZ-AC 1SPD DX AC CLG COIL 9KBTU/HR 14.0SEER, 2619.7, 3.29, 11.22, 11.10, 11.10, 10.96
 DX Cooling Coil Standard Rating Information, Coil:Cooling:DX:SingleSpeed, ZONE OFFICE WHOLEBUILDING - MD OFFICE C END_A - STORY TOP PSZ-AC 1SPD DX AC CLG COIL 9KBTU/HR 14.0SEER, 2592.9, 3.15, 10.75, 10.61, 10.91,  
 Component Sizing Information, Coil:Heating:Fuel, ZONE OFFICE WHOLEBUILDING - MD OFFICE C END_A - STORY TOP PSZ-AC GAS HTG COIL 22KBTU/HR 0.8 THERMAL EFF, Design Size Nominal Capacity [W], 6184.90623
 Component Sizing Information, Fan:OnOff, ZONE OFFICE WHOLEBUILDING - MD OFFICE C END_A - STORY TOP PSZ-AC FAN, Design Size Maximum Flow Rate [m3/s], 0.16612
 Component Sizing Information, Coil:Heating:Electric, ZONE OFFICE WHOLEBUILDING - MD OFFICE C END_A - STORY TOP PSZ-AC NO HEAT, User-Specified Nominal Capacity [W], 0.00000
 Component Sizing Information, Controller:OutdoorAir, ZONE OFFICE WHOLEBUILDING - MD OFFICE C END_B - STORY GROUND PSZ-AC OA SYSTEM CONTROLLER, Maximum Outdoor Air Flow Rate [m3/s], 0.12852
 Component Sizing Information, Controller:OutdoorAir, ZONE OFFICE WHOLEBUILDING - MD OFFICE C END_B - STORY GROUND PSZ-AC OA SYSTEM CONTROLLER, Minimum Outdoor Air Flow Rate [m3/s], 9.02599E-003
 Component Sizing Information, AirLoopHVAC:UnitarySystem, ZONE OFFICE WHOLEBUILDING - MD OFFICE C END_B - STORY GROUND PSZ-AC UNITARY AC, Design Size Supply Air Flow Rate [m3/s], 0.12852
 Component Sizing Information, AirLoopHVAC:UnitarySystem, ZONE OFFICE WHOLEBUILDING - MD OFFICE C END_B - STORY GROUND PSZ-AC UNITARY AC, Design Size Heating Supply Air Flow Rate [m3/s], 0.12852
 Component Sizing Information, AirLoopHVAC:UnitarySystem, ZONE OFFICE WHOLEBUILDING - MD OFFICE C END_B - STORY GROUND PSZ-AC UNITARY AC, Design Size Cooling Supply Air Flow Rate [m3/s], 0.12852
 Component Sizing Information, AirLoopHVAC:UnitarySystem, ZONE OFFICE WHOLEBUILDING - MD OFFICE C END_B - STORY GROUND PSZ-AC UNITARY AC, User-Specified No Load Supply Air Flow Rate [m3/s], 0.00000
 Component Sizing Information, AirLoopHVAC:UnitarySystem, ZONE OFFICE WHOLEBUILDING - MD OFFICE C END_B - STORY GROUND PSZ-AC UNITARY AC, Design Size Nominal Cooling Capacity [W], 2127.51070
 Component Sizing Information, AirLoopHVAC:UnitarySystem, ZONE OFFICE WHOLEBUILDING - MD OFFICE C END_B - STORY GROUND PSZ-AC UNITARY AC, Design Size Nominal Heating Capacity [W], 4867.95904
 Component Sizing Information, AirLoopHVAC:UnitarySystem, ZONE OFFICE WHOLEBUILDING - MD OFFICE C END_B - STORY GROUND PSZ-AC UNITARY AC, Design Size Maximum Supply Air Temperature [C], 50.00000
 Component Sizing Information, AirLoopHVAC:UnitarySystem, ZONE OFFICE WHOLEBUILDING - MD OFFICE C END_B - STORY GROUND PSZ-AC UNITARY AC, User-Specified Maximum Supply Air Temperature [C], 80.00000
 Component Sizing Information, AirLoopHVAC:UnitarySystem, ZONE OFFICE WHOLEBUILDING - MD OFFICE C END_B - STORY GROUND PSZ-AC UNITARY AC, User-Specified Supplemental Heating Coil Nominal Capacity [W], 0.00000
 Component Sizing Information, AirLoopHVAC:UnitarySystem, ZONE OFFICE WHOLEBUILDING - MD OFFICE C END_B - STORY GROUND PSZ-AC UNITARY AC, Fraction of Supply Air Flow That Goes Through the Controlling Zone, 1.00000
 Component Sizing Information, Coil:Cooling:DX:SingleSpeed, ZONE OFFICE WHOLEBUILDING - MD OFFICE C END_B - STORY GROUND PSZ-AC 1SPD DX AC CLG COIL 7KBTU/HR 14.0SEER, Design Size Rated Air Flow Rate [m3/s], 0.12852
 Component Sizing Information, Coil:Cooling:DX:SingleSpeed, ZONE OFFICE WHOLEBUILDING - MD OFFICE C END_B - STORY GROUND PSZ-AC 1SPD DX AC CLG COIL 7KBTU/HR 14.0SEER, Design Size Gross Rated Total Cooling Capacity [W], 2127.51070
 Component Sizing Information, Coil:Cooling:DX:SingleSpeed, ZONE OFFICE WHOLEBUILDING - MD OFFICE C END_B - STORY GROUND PSZ-AC 1SPD DX AC CLG COIL 7KBTU/HR 14.0SEER, Design Size Gross Rated Sensible Heat Ratio, 0.80066
 DX Cooling Coil Standard Rating Information, Coil:Cooling:DX:SingleSpeed, ZONE OFFICE WHOLEBUILDING - MD OFFICE C END_B - STORY GROUND PSZ-AC 1SPD DX AC CLG COIL 7KBTU/HR 14.0SEER, 2026.8, 3.29, 11.22, 11.10, 11.10, 10.96
 DX Cooling Coil Standard Rating Information, Coil:Cooling:DX:SingleSpeed, ZONE OFFICE WHOLEBUILDING - MD OFFICE C END_B - STORY GROUND PSZ-AC 1SPD DX AC CLG COIL 7KBTU/HR 14.0SEER, 2006.1, 3.15, 10.75, 10.61, 10.91,  
 Component Sizing Information, Coil:Heating:Fuel, ZONE OFFICE WHOLEBUILDING - MD OFFICE C END_B - STORY GROUND PSZ-AC GAS HTG COIL 16KBTU/HR 0.8 THERMAL EFF, Design Size Nominal Capacity [W], 4867.95904
 Component Sizing Information, Fan:OnOff, ZONE OFFICE WHOLEBUILDING - MD OFFICE C END_B - STORY GROUND PSZ-AC FAN, Design Size Maximum Flow Rate [m3/s], 0.12852
 Component Sizing Information, Coil:Heating:Electric, ZONE OFFICE WHOLEBUILDING - MD OFFICE C END_B - STORY GROUND PSZ-AC NO HEAT, User-Specified Nominal Capacity [W], 0.00000
 Component Sizing Information, Controller:OutdoorAir, ZONE OFFICE WHOLEBUILDING - MD OFFICE C END_B - STORY TOP PSZ-AC OA SYSTEM CONTROLLER, Maximum Outdoor Air Flow Rate [m3/s], 0.16240
 Component Sizing Information, Controller:OutdoorAir, ZONE OFFICE WHOLEBUILDING - MD OFFICE C END_B - STORY TOP PSZ-AC OA SYSTEM CONTROLLER, Minimum Outdoor Air Flow Rate [m3/s], 9.02599E-003
 Component Sizing Information, AirLoopHVAC:UnitarySystem, ZONE OFFICE WHOLEBUILDING - MD OFFICE C END_B - STORY TOP PSZ-AC UNITARY AC, Design Size Supply Air Flow Rate [m3/s], 0.16240
 Component Sizing Information, AirLoopHVAC:UnitarySystem, ZONE OFFICE WHOLEBUILDING - MD OFFICE C END_B - STORY TOP PSZ-AC UNITARY AC, Design Size Heating Supply Air Flow Rate [m3/s], 0.16240
 Component Sizing Information, AirLoopHVAC:UnitarySystem, ZONE OFFICE WHOLEBUILDING - MD OFFICE C END_B - STORY TOP PSZ-AC UNITARY AC, Design Size Cooling Supply Air Flow Rate [m3/s], 0.16240
 Component Sizing Information, AirLoopHVAC:UnitarySystem, ZONE OFFICE WHOLEBUILDING - MD OFFICE C END_B - STORY TOP PSZ-AC UNITARY AC, User-Specified No Load Supply Air Flow Rate [m3/s], 0.00000
 Component Sizing Information, AirLoopHVAC:UnitarySystem, ZONE OFFICE WHOLEBUILDING - MD OFFICE C END_B - STORY TOP PSZ-AC UNITARY AC, Design Size Nominal Cooling Capacity [W], 2688.29719
 Component Sizing Information, AirLoopHVAC:UnitarySystem, ZONE OFFICE WHOLEBUILDING - MD OFFICE C END_B - STORY TOP PSZ-AC UNITARY AC, Design Size Nominal Heating Capacity [W], 6054.61836
 Component Sizing Information, AirLoopHVAC:UnitarySystem, ZONE OFFICE WHOLEBUILDING - MD OFFICE C END_B - STORY TOP PSZ-AC UNITARY AC, Design Size Maximum Supply Air Temperature [C], 50.00000
 Component Sizing Information, AirLoopHVAC:UnitarySystem, ZONE OFFICE WHOLEBUILDING - MD OFFICE C END_B - STORY TOP PSZ-AC UNITARY AC, User-Specified Maximum Supply Air Temperature [C], 80.00000
 Component Sizing Information, AirLoopHVAC:UnitarySystem, ZONE OFFICE WHOLEBUILDING - MD OFFICE C END_B - STORY TOP PSZ-AC UNITARY AC, User-Specified Supplemental Heating Coil Nominal Capacity [W], 0.00000
 Component Sizing Information, AirLoopHVAC:UnitarySystem, ZONE OFFICE WHOLEBUILDING - MD OFFICE C END_B - STORY TOP PSZ-AC UNITARY AC, Fraction of Supply Air Flow That Goes Through the Controlling Zone, 1.00000
 Component Sizing Information, Coil:Cooling:DX:SingleSpeed, ZONE OFFICE WHOLEBUILDING - MD OFFICE C END_B - STORY TOP PSZ-AC 1SPD DX AC CLG COIL 9KBTU/HR 14.0SEER, Design Size Rated Air Flow Rate [m3/s], 0.16240
 Component Sizing Information, Coil:Cooling:DX:SingleSpeed, ZONE OFFICE WHOLEBUILDING - MD OFFICE C END_B - STORY TOP PSZ-AC 1SPD DX AC CLG COIL 9KBTU/HR 14.0SEER, Design Size Gross Rated Total Cooling Capacity [W], 2688.29719
 Component Sizing Information, Coil:Cooling:DX:SingleSpeed, ZONE OFFICE WHOLEBUILDING - MD OFFICE C END_B - STORY TOP PSZ-AC 1SPD DX AC CLG COIL 9KBTU/HR 14.0SEER, Design Size Gross Rated Sensible Heat Ratio, 0.80066
 DX Cooling Coil Standard Rating Information, Coil:Cooling:DX:SingleSpeed, ZONE OFFICE WHOLEBUILDING - MD OFFICE C END_B - STORY TOP PSZ-AC 1SPD DX AC CLG COIL 9KBTU/HR 14.0SEER, 2561.0, 3.29, 11.22, 11.10, 11.10, 10.96
 DX Cooling Coil Standard Rating Information, Coil:Cooling:DX:SingleSpeed, ZONE OFFICE WHOLEBUILDING - MD OFFICE C END_B - STORY TOP PSZ-AC 1SPD DX AC CLG COIL 9KBTU/HR 14.0SEER, 2534.9, 3.15, 10.75, 10.61, 10.91,  
 Component Sizing Information, Coil:Heating:Fuel, ZONE OFFICE WHOLEBUILDING - MD OFFICE C END_B - STORY TOP PSZ-AC GAS HTG COIL 22KBTU/HR 0.8 THERMAL EFF, Design Size Nominal Capacity [W], 6054.61836
 Component Sizing Information, Fan:OnOff, ZONE OFFICE WHOLEBUILDING - MD OFFICE C END_B - STORY TOP PSZ-AC FAN, Design Size Maximum Flow Rate [m3/s], 0.16240
 Component Sizing Information, Coil:Heating:Electric, ZONE OFFICE WHOLEBUILDING - MD OFFICE C END_B - STORY TOP PSZ-AC NO HEAT, User-Specified Nominal Capacity [W], 0.00000
Water Heater Information,WaterHeater:Mixed,40GAL ELECTRICITY WATER HEATER - 40KBTU/HR 1.0 THERM EFF 1.0 THERM EFF,0.1514,11722.8,0.983,0.4688
Water Heater Information,WaterHeater:Mixed,40GAL NATURALGAS WATER HEATER - 5KBTU/HR 0.82 THERM EFF,0.1514,1387.8,0.169,1.0189
 Component Sizing Information, PlantLoop, MAIN SERVICE WATER LOOP, Maximum Loop Flow Rate [m3/s], 0.00000
 Component Sizing Information, PlantLoop, MAIN SERVICE WATER LOOP, Plant Loop Volume [m3], 0.00000
 Component Sizing Information, Pump:VariableSpeed, MAIN SERVICE WATER LOOP WATER MAINS PRESSURE DRIVEN, Design Flow Rate [m3/s], 0.00000
 Component Sizing Information, Pump:VariableSpeed, MAIN SERVICE WATER LOOP WATER MAINS PRESSURE DRIVEN, Design Power Consumption [W], 0.00000
 Component Sizing Information, WaterHeater:Mixed, 40GAL ELECTRICITY WATER HEATER - 40KBTU/HR 1.0 THERM EFF 1.0 THERM EFF, Use Side Design Flow Rate [m3/s], 0.00000
 Component Sizing Information, PlantLoop, OFFICE SHARED SERVICE WATER LOOP, Maximum Loop Flow Rate [m3/s], 8.31979E-006
 Component Sizing Information, PlantLoop, OFFICE SHARED SERVICE WATER LOOP, Plant Loop Volume [m3], 9.98375E-004
 Component Sizing Information, Pump:ConstantSpeed, OFFICE SHARED SERVICE WATER LOOP CIRCULATOR PUMP, Design Flow Rate [m3/s], 8.31979E-006
 Component Sizing Information, Pump:ConstantSpeed, OFFICE SHARED SERVICE WATER LOOP CIRCULATOR PUMP, Design Power Consumption [W], 0.45547
 Component Sizing Information, WaterHeater:Mixed, 40GAL NATURALGAS WATER HEATER - 5KBTU/HR 0.82 THERM EFF, Use Side Design Flow Rate [m3/s], 8.31979E-006
! <Environment>,Environment Name,Environment Type, Start Date, End Date, Start DayOfWeek, Duration {#days}, Source:Start DayOfWeek,  Use Daylight Saving, Use Holidays, Apply Weekend Holiday Rule,  Use Rain Values, Use Snow Values, Sky Temperature Model
! <Environment:Special Days>, Special Day Name, Special Day Type, Source, Start Date, Duration {#days}
! <Environment:Daylight Saving>, Daylight Saving Indicator, Source, Start Date, End Date
! <Environment:WarmupDays>, NumberofWarmupDays
Environment,RUN PERIOD 1,WeatherFileRunPeriod,01/01/2020,12/31/2020,Wednesday,366,Use RunPeriod Specified Day,No,No,No,Yes,Yes,Clark and Allen
Environment:Daylight Saving,Yes,InputFile,03/09,11/02
Environment:WarmupDays,  6
! <Tabular Report>,Style,Unit Conversion
Tabular Report,HTML,None
! <Warmup Convergence Information>,Zone Name,Environment Type/Name,Average Warmup Temperature Difference {deltaC},Std Dev Warmup Temperature Difference {deltaC},Max Temperature Pass/Fail Convergence,Min Temperature Pass/Fail Convergence,Average Warmup Load Difference {W},Std Dev Warmup Load Difference {W},Heating Load Pass/Fail Convergence,Cooling Load Pass/Fail Convergence
 Warmup Convergence Information,ZONE OFFICE WHOLEBUILDING - MD OFFICE A  - STORY GROUND,RunPeriod: RUN PERIOD 1,7.5010515225E-002,0.1426858024,Pass,Pass,9.8489260211E-002,0.4383473677,Pass,Pass
 Warmup Convergence Information,ZONE OFFICE WHOLEBUILDING - MD OFFICE A  - STORY TOP,RunPeriod: RUN PERIOD 1,7.5000000000E-002,0.1515710891,Pass,Pass,6.7542387611E-002,0.1196840864,Pass,Pass
 Warmup Convergence Information,ZONE OFFICE WHOLEBUILDING - MD OFFICE A END_A - STORY GROUND,RunPeriod: RUN PERIOD 1,7.5024412371E-002,0.1533556322,Pass,Pass,3.1720735537E-002,4.4810982619E-002,Pass,Pass
 Warmup Convergence Information,ZONE OFFICE WHOLEBUILDING - MD OFFICE A END_A - STORY TOP,RunPeriod: RUN PERIOD 1,7.5000000000E-002,0.1532493168,Pass,Pass,2.9534661065E-002,3.0361358510E-002,Pass,Pass
 Warmup Convergence Information,ZONE OFFICE WHOLEBUILDING - MD OFFICE A END_B - STORY GROUND,RunPeriod: RUN PERIOD 1,7.5000000000E-002,0.1533007466,Pass,Pass,3.1781811357E-002,4.4062746055E-002,Pass,Pass
 Warmup Convergence Information,ZONE OFFICE WHOLEBUILDING - MD OFFICE A END_B - STORY TOP,RunPeriod: RUN PERIOD 1,7.5000000000E-002,0.1532552369,Pass,Pass,2.9544232261E-002,3.0577235853E-002,Pass,Pass
 Warmup Convergence Information,ZONE OFFICE WHOLEBUILDING - MD OFFICE B  - STORY GROUND,RunPeriod: RUN PERIOD 1,3.7516341083E-002,7.2000527361E-002,Pass,Pass,0.2735614849,1.2252396729,Pass,Pass
 Warmup Convergence Information,ZONE OFFICE WHOLEBUILDING - MD OFFICE B  - STORY TOP,RunPeriod: RUN PERIOD 1,5.7080264363E-002,9.3999087899E-002,Pass,Pass,0.1454354144,0.5851282721,Pass,Pass
 Warmup Convergence Information,ZONE OFFICE WHOLEBUILDING - MD OFFICE B END_A - STORY GROUND,RunPeriod: RUN PERIOD 1,7.5009151919E-002,0.1432961907,Pass,Pass,6.0400863833E-002,0.1421498697,Pass,Pass
 Warmup Convergence Information,ZONE OFFICE WHOLEBUILDING - MD OFFICE B END_A - STORY TOP,RunPeriod: RUN PERIOD 1,7.5000000000E-002,0.1514930886,Pass,Pass,7.6259749490E-002,0.2267863339,Pass,Pass
 Warmup Convergence Information,ZONE OFFICE WHOLEBUILDING - MD OFFICE B END_B - STORY GROUND,RunPeriod: RUN PERIOD 1,7.5009211733E-002,0.1430358072,Pass,Pass,6.4443295924E-002,0.1697895298,Pass,Pass
 Warmup Convergence Information,ZONE OFFICE WHOLEBUILDING - MD OFFICE B END_B - STORY TOP,RunPeriod: RUN PERIOD 1,7.5000000000E-002,0.1514417352,Pass,Pass,6.3412226490E-002,0.1395663091,Pass,Pass
 Warmup Convergence Information,ZONE OFFICE WHOLEBUILDING - MD OFFICE C  - STORY GROUND,RunPeriod: RUN PERIOD 1,7.5011688255E-002,0.1455322747,Pass,Pass,0.1114252777,0.6850513571,Pass,Pass
 Warmup Convergence Information,ZONE OFFICE WHOLEBUILDING - MD OFFICE C  - STORY TOP,RunPeriod: RUN PERIOD 1,7.5000000000E-002,0.1518008468,Pass,Pass,5.1565007649E-002,8.2209774531E-002,Pass,Pass
 Warmup Convergence Information,ZONE OFFICE WHOLEBUILDING - MD OFFICE C END_A - STORY GROUND,RunPeriod: RUN PERIOD 1,7.5000000000E-002,0.1533746265,Pass,Pass,2.8201082529E-002,4.1603382909E-002,Pass,Pass
 Warmup Convergence Information,ZONE OFFICE WHOLEBUILDING - MD OFFICE C END_A - STORY TOP,RunPeriod: RUN PERIOD 1,7.5000000000E-002,0.1532911945,Pass,Pass,2.6386914220E-002,2.9340472159E-002,Pass,Pass
 Warmup Convergence Information,ZONE OFFICE WHOLEBUILDING - MD OFFICE C END_B - STORY GROUND,RunPeriod: RUN PERIOD 1,7.5000000000E-002,0.1533849490,Pass,Pass,2.8462857943E-002,4.1956240071E-002,Pass,Pass
 Warmup Convergence Information,ZONE OFFICE WHOLEBUILDING - MD OFFICE C END_B - STORY TOP,RunPeriod: RUN PERIOD 1,7.5000000000E-002,0.1532975937,Pass,Pass,2.6586017347E-002,2.9455877166E-002,Pass,Pass
! <Program Control Information:Threads/Parallel Sims>, Threading Supported,Maximum Number of Threads, Env Set Threads (OMP_NUM_THREADS), EP Env Set Threads (EP_OMP_NUM_THREADS), IDF Set Threads, Number of Threads Used (Interior Radiant Exchange), Number Nominal Surfaces, Number Parallel Sims
Program Control:Threads/Parallel Sims, No,1, N/A, N/A, N/A, N/A, N/A, N/A
End of Data
