Program Version,EnergyPlus, Version 22.2.0-aa78da9668, YMD=2023.05.30 14:58
! <Version>, Version ID
 Version, 22.2
! <Timesteps per Hour>, #TimeSteps, Minutes per TimeStep {minutes}
 Timesteps per Hour,  6, 10
! <System Convergence Limits>, Minimum System TimeStep {minutes}, Max HVAC Iterations, Minimum Plant Iterations, Maximum Plant Iterations
 System Convergence Limits, 1, 20, 2, 8
! <Simulation Control>, Do Zone Sizing, Do System Sizing, Do Plant Sizing, Do Design Days, Do Weather Simulation, Do HVAC Sizing Simulation
 Simulation Control, Yes, Yes, Yes, No, Yes, No
! <Performance Precision Tradeoffs>, Use Coil Direct Simulation, Zone Radiant Exchange Algorithm, Override Mode, Number of Timestep In Hour, Force Euler Method, Minimum Number of Warmup Days, Force Suppress All Begin Environment Resets, Minimum System Timestep, MaxZoneTempDiff, MaxAllowedDelTemp
 Performance Precision Tradeoffs, No, ScriptF, Normal, 6, No, 1, No, 1.0, 0.300, 2.0000E-003
! <Output Reporting Tolerances>, Tolerance for Time Heating Setpoint Not Met, Tolerance for Zone Cooling Setpoint Not Met Time
 Output Reporting Tolerances, 0.200, 0.200, 
! <Site:GroundTemperature:BuildingSurface>,Jan{C},Feb{C},Mar{C},Apr{C},May{C},Jun{C},Jul{C},Aug{C},Sep{C},Oct{C},Nov{C},Dec{C}
 Site:GroundTemperature:BuildingSurface,  18.00,  18.00,  18.00,  18.00,  18.00,  18.00,  18.00,  18.00,  18.00,  18.00,  18.00,  18.00
! <Site:GroundTemperature:FCfactorMethod>,Jan{C},Feb{C},Mar{C},Apr{C},May{C},Jun{C},Jul{C},Aug{C},Sep{C},Oct{C},Nov{C},Dec{C}
 Site:GroundTemperature:FCfactorMethod,  24.20,  18.90,  15.70,  13.60,  15.50,  17.10,  21.20,  26.90,  27.60,  27.90,  27.40,  26.20
! <Site:GroundTemperature:Shallow>,Jan{C},Feb{C},Mar{C},Apr{C},May{C},Jun{C},Jul{C},Aug{C},Sep{C},Oct{C},Nov{C},Dec{C}
 Site:GroundTemperature:Shallow,  13.00,  13.00,  13.00,  13.00,  13.00,  13.00,  13.00,  13.00,  13.00,  13.00,  13.00,  13.00
! <Site:GroundTemperature:Deep>,Jan{C},Feb{C},Mar{C},Apr{C},May{C},Jun{C},Jul{C},Aug{C},Sep{C},Oct{C},Nov{C},Dec{C}
 Site:GroundTemperature:Deep,  16.00,  16.00,  16.00,  16.00,  16.00,  16.00,  16.00,  16.00,  16.00,  16.00,  16.00,  16.00
! <Site:GroundReflectance>,Jan{dimensionless},Feb{dimensionless},Mar{dimensionless},Apr{dimensionless},May{dimensionless},Jun{dimensionless},Jul{dimensionless},Aug{dimensionless},Sep{dimensionless},Oct{dimensionless},Nov{dimensionless},Dec{dimensionless}
 Site:GroundReflectance,  0.20,  0.20,  0.20,  0.20,  0.20,  0.20,  0.20,  0.20,  0.20,  0.20,  0.20,  0.20
! <Site:GroundReflectance:SnowModifier>, Normal, Daylighting {dimensionless}
 Site:GroundReflectance:SnowModifier,   1.000,   1.000
! <Site:GroundReflectance:Snow>,Jan{dimensionless},Feb{dimensionless},Mar{dimensionless},Apr{dimensionless},May{dimensionless},Jun{dimensionless},Jul{dimensionless},Aug{dimensionless},Sep{dimensionless},Oct{dimensionless},Nov{dimensionless},Dec{dimensionless}
 Site:GroundReflectance:Snow,  0.20,  0.20,  0.20,  0.20,  0.20,  0.20,  0.20,  0.20,  0.20,  0.20,  0.20,  0.20
! <Site:GroundReflectance:Snow:Daylighting>,Jan{dimensionless},Feb{dimensionless},Mar{dimensionless},Apr{dimensionless},May{dimensionless},Jun{dimensionless},Jul{dimensionless},Aug{dimensionless},Sep{dimensionless},Oct{dimensionless},Nov{dimensionless},Dec{dimensionless}
 Site:GroundReflectance:Snow:Daylighting,  0.20,  0.20,  0.20,  0.20,  0.20,  0.20,  0.20,  0.20,  0.20,  0.20,  0.20,  0.20
! <Environment:Weather Station>,Wind Sensor Height Above Ground {m},Wind Speed Profile Exponent {},Wind Speed Profile Boundary Layer Thickness {m},Air Temperature Sensor Height Above Ground {m},Wind Speed Modifier Coefficient-Internal,Temperature Modifier Coefficient-Internal
Environment:Weather Station,10.000,0.140,270.000,1.500,1.586,9.750E-003
! <Site:Location>, Location Name, Latitude {N+/S- Deg}, Longitude {E+/W- Deg},  Time Zone Number {GMT+/-}, Elevation {m},  Standard Pressure at Elevation {Pa}, Standard RhoAir at Elevation
Site:Location,Aransas TX USA GridAligned for County WMO#=G4800070,28.03,-97.07,-6.00,12.00,101181,1.2026
! <Site Water Mains Temperature Information>,Calculation Method{},Water Mains Temperature Schedule Name{},Annual Average Outdoor Air Temperature{C},Maximum Difference In Monthly Average Outdoor Air Temperatures{deltaC},Fixed Default Water Mains Temperature{C}
Site Water Mains Temperature Information,Correlation,NA,21.85,14.30,NA
! <Building Information>, Building Name,North Axis {deg},Terrain,  Loads Convergence Tolerance Value,Temperature Convergence Tolerance Value,  Solar Distribution,Maximum Number of Warmup Days,Minimum Number of Warmup Days
 Building Information,-Warehouse-ASHRAE 169-2013-2A created: 2023-05-23 23:01:18 -0600,90.000,Urban,4.00000E-002,0.40000,FullExterior,25,1
! <Inside Convection Algorithm>, Algorithm {Simple | TARP | CeilingDiffuser | AdaptiveConvectionAlgorithm}
Inside Convection Algorithm,TARP
! <Outside Convection Algorithm>, Algorithm {SimpleCombined | TARP | MoWitt | DOE-2 | AdaptiveConvectionAlgorithm}
Outside Convection Algorithm,TARP
! <Sky Radiance Distribution>, Value {Anisotropic}
Sky Radiance Distribution,Anisotropic
! <Zone Air Solution Algorithm>, Value {ThirdOrderBackwardDifference | AnalyticalSolution | EulerMethod}
 Zone Air Solution Algorithm, ThirdOrderBackwardDifference
! <Zone Air Carbon Dioxide Balance Simulation>, Simulation {Yes/No}, Carbon Dioxide Concentration
 Zone Air Carbon Dioxide Balance Simulation, No,N/A
! <Zone Air Generic Contaminant Balance Simulation>, Simulation {Yes/No}, Generic Contaminant Concentration
 Zone Air Generic Contaminant Balance Simulation, No,N/A
! <Zone Air Mass Flow Balance Simulation>, Enforce Mass Balance, Adjust Zone Mixing and Return {AdjustMixingOnly | AdjustReturnOnly | AdjustMixingThenReturn | AdjustReturnThenMixing | None}, Adjust Zone Infiltration {AddInfiltration | AdjustInfiltration | None}, Infiltration Zones {MixingSourceZonesOnly | AllZones}
 Zone Air Mass Flow Balance Simulation, No,N/A,N/A,N/A
! <HVACSystemRootFindingAlgorithm>, Value {RegulaFalsi | Bisection | BisectionThenRegulaFalsi | RegulaFalsiThenBisection}
 HVACSystemRootFindingAlgorithm, RegulaFalsi
! <Environment:Site Atmospheric Variation>,Wind Speed Profile Exponent {},Wind Speed Profile Boundary Layer Thickness {m},Air Temperature Gradient Coefficient {K/m}
Environment:Site Atmospheric Variation,0.220,370.000,6.500000E-003
! <Surface Geometry>,Starting Corner,Vertex Input Direction,Coordinate System,Daylight Reference Point Coordinate System,Rectangular (Simple) Surface Coordinate System
 Surface Geometry,UpperLeftCorner,Counterclockwise,RelativeCoordinateSystem,RelativeCoordinateSystem,RelativeToZoneOrigin
! <Surface Heat Transfer Algorithm>, Value {CTF - ConductionTransferFunction | EMPD - MoisturePenetrationDepthConductionTransferFunction | CondFD - ConductionFiniteDifference | HAMT - CombinedHeatAndMoistureFiniteElement} - Description,Inside Surface Max Temperature Limit{C}, Surface Convection Coefficient Lower Limit {W/m2-K}, Surface Convection Coefficient Upper Limit {W/m2-K}
Surface Heat Transfer Algorithm, CTF - ConductionTransferFunction,200,0.10,1000.0
! <Shading Summary>, Number of Fixed Detached Shades, Number of Building Detached Shades, Number of Attached Shades
 Shading Summary,0,0,0
! <Zone Summary>, Number of Zones, Number of Zone Surfaces, Number of SubSurfaces
 Zone Summary,3,103,78
! <Zone Information>,Zone Name,North Axis {deg},Origin X-Coordinate {m},Origin Y-Coordinate {m},Origin Z-Coordinate {m},Centroid X-Coordinate {m},Centroid Y-Coordinate {m},Centroid Z-Coordinate {m},Type,Zone Multiplier,Zone List Multiplier,Minimum X {m},Maximum X {m},Minimum Y {m},Maximum Y {m},Minimum Z {m},Maximum Z {m},Ceiling Height {m},Volume {m3},Zone Inside Convection Algorithm {Simple-Detailed-CeilingDiffuser-TrombeWall},Zone Outside Convection Algorithm {Simple-Detailed-Tarp-MoWitt-DOE-2-BLAST}, Floor Area {m2},Exterior Gross Wall Area {m2},Exterior Net Wall Area {m2},Exterior Window Area {m2}, Number of Surfaces, Number of SubSurfaces, Number of Shading SubSurfaces,  Part of Total Building Area
 Zone Information, ZONE1 OFFICE ZN,0.0,0.00,0.00,0.00,4.57,-12.95,2.13,1,1,1,0.00,9.14,-25.91,5.60E-016,0.00,4.27,4.27,1010.76,TARP,TARP,236.88,149.56,128.00,17.66,6,6,0,Yes
 Zone Information, ZONE2 FINE STORAGE ZN,0.0,0.00,0.00,0.00,14.29,-22.82,4.51,1,1,1,0.00,30.48,-45.72,1.87E-015,0.00,8.53,7.81,2953.02,TARP,TARP,1393.41,760.80,727.17,20.81,11,20,0,Yes
 Zone Information, ZONE3 BULK STORAGE ZN,0.0,0.00,0.00,0.00,65.53,-22.86,4.27,1,1,1,30.48,100.58,-45.72,6.16E-015,0.00,8.53,8.53,35277.63,TARP,TARP,3204.84,1586.63,1471.35,47.57,6,52,0,Yes
! <Zone Internal Gains Nominal>,Zone Name, Floor Area {m2},# Occupants,Area per Occupant {m2/person},Occupant per Area {person/m2},Interior Lighting {W/m2},Electric Load {W/m2},Gas Load {W/m2},Other Load {W/m2},Hot Water Eq {W/m2},Steam Equipment {W/m2},Sum Loads per Area {W/m2},Outdoor Controlled Baseboard Heat
 Zone Internal Gains Nominal, ZONE1 OFFICE ZN,236.88,5.0,47.400,2.110E-002,9.688,8.073,0.000,0.000,0.000,0.000,17.760,No
 Zone Internal Gains Nominal, ZONE2 FINE STORAGE ZN,1393.41,0.0,N/A,0.000,10.226,0.000,0.000,0.000,0.000,0.000,10.226,No
 Zone Internal Gains Nominal, ZONE3 BULK STORAGE ZN,3204.84,0.0,N/A,0.000,6.243,2.558,0.000,0.000,0.000,0.000,8.801,No
! <People Internal Gains Nominal>,Name,Schedule Name,Zone Name,Zone Floor Area {m2},# Zone Occupants,Number of People {},People/Floor Area {person/m2},Floor Area per person {m2/person},Fraction Radiant,Fraction Convected,Sensible Fraction Calculation,Activity level,ASHRAE 55 Warnings,Carbon Dioxide Generation Rate,Nominal Minimum Number of People,Nominal Maximum Number of People
 People Internal Gains Nominal, ZONE1 OFFICE WAREHOUSE OFFICE PEOPLE,WAREHOUSE BLDG_OCC_SCH,ZONE1 OFFICE ZN,236.88,5.0,5.0,2.110E-002,47.400,0.300,0.700,AutoCalculate,WAREHOUSE OFFICE ACTIVITY SCHEDULE,No,3.8200E-008,0,5
! <Lights Internal Gains Nominal>,Name,Schedule Name,Zone Name,Zone Floor Area {m2},# Zone Occupants,Lighting Level {W},Lights/Floor Area {W/m2},Lights per person {W/person},Fraction Return Air,Fraction Radiant,Fraction Short Wave,Fraction Convected,Fraction Replaceable,End-Use Category,Nominal Minimum Lighting Level {W},Nominal Maximum Lighting Level {W}
 Lights Internal Gains Nominal, ZONE1 OFFICE WAREHOUSE OFFICE LIGHTS,WAREHOUSE BLDG_LIGHT_OFFICE_SCH_2010,ZONE1 OFFICE ZN,236.88,5.0,2294.776,9.688,459.184,0.000,0.370,0.180,0.450,1.000,General,0.000,2294.776
 Lights Internal Gains Nominal, ZONE2 FINE STORAGE WAREHOUSE FINE LIGHTS,WAREHOUSE BLDG_LIGHT_STORAGE_SCH,ZONE2 FINE STORAGE ZN,1393.41,0.0,14248.610,10.226,N/A,0.000,0.420,0.180,0.400,1.000,General,0.000,14248.610
 Lights Internal Gains Nominal, ZONE3 BULK STORAGE WAREHOUSE BULK LIGHTS,WAREHOUSE BLDG_LIGHT_STORAGE_SCH,ZONE3 BULK STORAGE ZN,3204.84,0.0,20008.048,6.243,N/A,0.000,0.420,0.180,0.400,1.000,General,0.000,20008.048
! <ElectricEquipment Internal Gains Nominal>,Name,Schedule Name,Zone Name,Zone Floor Area {m2},# Zone Occupants,Equipment Level {W},Equipment/Floor Area {W/m2},Equipment per person {W/person},Fraction Latent,Fraction Radiant,Fraction Lost,Fraction Convected,End-Use SubCategory,Nominal Minimum Equipment Level {W},Nominal Maximum Equipment Level {W}
 ElectricEquipment Internal Gains Nominal, ZONE1 OFFICE WAREHOUSE OFFICE ELEC EQUIP,WAREHOUSE OFFICE_PLUG_SCH,ZONE1 OFFICE ZN,236.88,5.0,1912.313,8.073,382.653,0.000,0.000,0.000,1.000,General,0.000,1912.313
 ElectricEquipment Internal Gains Nominal, ZONE3 BULK STORAGE WAREHOUSE BULK ELEC EQUIP,WAREHOUSE BLDG EQUIP,ZONE3 BULK STORAGE ZN,3204.84,0.0,8199.320,2.558,N/A,0.000,0.000,0.000,1.000,General,0.000,8199.320
! <Shadowing/Sun Position Calculations Annual Simulations>, Shading Calculation Method, Shading Calculation Update Frequency Method, Shading Calculation Update Frequency {days}, Maximum Figures in Shadow Overlap Calculations {}, Polygon Clipping Algorithm, Pixel Counting Resolution, Sky Diffuse Modeling Algorithm, Output External Shading Calculation Results, Disable Self-Shading Within Shading Zone Groups, Disable Self-Shading From Shading Zone Groups to Other Zones
Shadowing/Sun Position Calculations Annual Simulations,PolygonClipping,Periodic,20,15000,SutherlandHodgman,512,SimpleSkyDiffuseModeling,No,No,No
! <Enclosure/Window Adjacency Daylighting Counts>, Enclosure Name, Number of Exterior Windows, Number of Exterior Windows in Adjacent Enclosures
Enclosure/Window Adjacency Daylighting Counts, ZONE1 OFFICE,4,0
Enclosure/Window Adjacency Daylighting Counts, ZONE2 FINE STORAGE,14,0
Enclosure/Window Adjacency Daylighting Counts, ZONE3 BULK STORAGE,32,0
! <Enclosure/Window Adjacency Daylighting Matrix>, Enclosure Name, Number of Adjacent Enclosures with Windows,Adjacent Enclosure Names - 1st 100 (max)
Enclosure/Window Adjacency Daylighting Matrix, ZONE1 OFFICE,0
Enclosure/Window Adjacency Daylighting Matrix, ZONE2 FINE STORAGE,0
Enclosure/Window Adjacency Daylighting Matrix, ZONE3 BULK STORAGE,0
! <Water Heater Information>,Type,Name,Volume {m3},Maximum Capacity {W},Standard Rated Recovery Efficiency, Standard Rated Energy Factor
! <ZoneInfiltration Airflow Stats Nominal>,Name,Schedule Name,Zone Name, Zone Floor Area {m2}, # Zone Occupants,Design Volume Flow Rate {m3/s},Volume Flow Rate/Floor Area {m3/s-m2},Volume Flow Rate/Exterior Surface Area {m3/s-m2},ACH - Air Changes per Hour,Equation A - Constant Term Coefficient {},Equation B - Temperature Term Coefficient {1/C},Equation C - Velocity Term Coefficient {s/m}, Equation D - Velocity Squared Term Coefficient {s2/m2}
 ZoneInfiltration Airflow Stats Nominal, ZONE1 OFFICE INFILTRATION,WAREHOUSE OFFICE INFIL SCHEDULE,ZONE1 OFFICE ZN,236.88,5.0,8.741E-002,3.690E-004,5.696E-004,0.311,0.000,0.000,0.224,0.000
 ZoneInfiltration Airflow Stats Nominal, ZONE2 FINE STORAGE INFILTRATION,WAREHOUSE FINE INFIL SCHEDULE,ZONE2 FINE STORAGE ZN,1393.41,0.0,0.440,3.158E-004,2.012E-004,0.537,0.000,0.000,0.224,0.000
 ZoneInfiltration Airflow Stats Nominal, 2.95 80.0 FT2 METAL COILING DOOR INFILTRATION,WAREHOUSE BULK INFIL SCHEDULE,ZONE3 BULK STORAGE ZN,3204.84,0.0,5.495E-002,1.714E-005,1.120E-005,5.607E-003,0.000,0.000,0.224,0.000
 ZoneInfiltration Airflow Stats Nominal, 3.2 80.0 FT2 OPEN DOOR INFILTRATION,WAREHOUSE BULK INFIL SCHEDULE,ZONE3 BULK STORAGE ZN,3204.84,0.0,0.133,4.137E-005,2.702E-005,1.353E-002,0.000,0.000,0.224,0.000
 ZoneInfiltration Airflow Stats Nominal, 8.85 80.0 FT2 ROLLUP DOOR INFILTRATION,WAREHOUSE BULK INFIL SCHEDULE,ZONE3 BULK STORAGE ZN,3204.84,0.0,1.499E-002,4.676E-006,3.054E-006,1.529E-003,0.000,0.000,0.224,0.000
 ZoneInfiltration Airflow Stats Nominal, ZONE3 BULK STORAGE INFILTRATION,WAREHOUSE BULK INFIL SCHEDULE,ZONE3 BULK STORAGE ZN,3204.84,0.0,0.925,2.888E-004,1.886E-004,9.444E-002,0.000,0.000,0.224,0.000
! <ZoneVentilation Airflow Stats Nominal>,Name,Schedule Name,Zone Name, Zone Floor Area {m2}, # Zone Occupants,Design Volume Flow Rate {m3/s},Volume Flow Rate/Floor Area {m3/s-m2},Volume Flow Rate/person Area {m3/s-person},ACH - Air Changes per Hour,Fan Type {Exhaust;Intake;Natural},Fan Pressure Rise {Pa},Fan Efficiency {},Equation A - Constant Term Coefficient {},Equation B - Temperature Term Coefficient {1/C},Equation C - Velocity Term Coefficient {s/m}, Equation D - Velocity Squared Term Coefficient {s2/m2},Minimum Indoor Temperature{C}/Schedule,Maximum Indoor Temperature{C}/Schedule,Delta Temperature{C}/Schedule,Minimum Outdoor Temperature{C}/Schedule,Maximum Outdoor Temperature{C}/Schedule,Maximum WindSpeed{m/s}
 ZoneVentilation Airflow Stats Nominal, ZONE3 BULK STORAGE ZN VENTILATION,ALWAYS ON,ZONE3 BULK STORAGE ZN,3204.84,0.0,37.760,1.178E-002,N/A,3.853,Exhaust,31.136,0.5,1.000,0.000,0.000,0.000,29.44,100.00,-100.00,-100.00,100.00,40.00
 ZoneVentilation Airflow Stats Nominal, ZONE3 BULK STORAGE ZN VENTILATION 1,ALWAYS ON,ZONE3 BULK STORAGE ZN,3204.84,0.0,0.944,2.945E-004,N/A,9.632E-002,Natural,0.000,1.0,0.000,0.000,0.224,0.000,-73.33,29.44,-100.00,-100.00,100.00,40.00
! <AirFlow Model>, Simple
 AirFlow Model, Simple
! <RoomAir Model>, Zone Name, Mixing/Mundt/UCSDDV/UCSDCV/UCSDUFI/UCSDUFE/User Defined
RoomAir Model,ZONE1 OFFICE ZN,Mixing/Well-Stirred
RoomAir Model,ZONE2 FINE STORAGE ZN,Mixing/Well-Stirred
RoomAir Model,ZONE3 BULK STORAGE ZN,Mixing/Well-Stirred
! <AirflowNetwork Model:Control>, No Multizone or Distribution/Multizone with Distribution/Multizone without Distribution/Multizone with Distribution only during Fan Operation
AirflowNetwork Model:Control,NoMultizoneOrDistribution
! <Zone Volume Capacitance Multiplier>, Sensible Heat Capacity Multiplier, Moisture Capacity Multiplier, Carbon Dioxide Capacity Multiplier, Generic Contaminant Capacity Multiplier
Zone Volume Capacitance Multiplier,   1.000 ,   1.000,   1.000,   1.000
! <Load Timesteps in Zone Design Calculation Averaging Window>, Value
 Load Timesteps in Zone Design Calculation Averaging Window,    6
! <Heating Sizing Factor Information>, Sizing Factor ID, Value
 Heating Sizing Factor Information, Global,   1.2000    
 Heating Sizing Factor Information, Zone ZONE1 OFFICE ZN,   1.2000    
 Heating Sizing Factor Information, Zone ZONE2 FINE STORAGE ZN,   1.2000    
 Heating Sizing Factor Information, Zone ZONE3 BULK STORAGE ZN,   1.2000    
! <Cooling Sizing Factor Information>, Sizing Factor ID, Value
 Cooling Sizing Factor Information, Global,   1.2000    
 Cooling Sizing Factor Information, Zone ZONE1 OFFICE ZN,   1.2000    
 Cooling Sizing Factor Information, Zone ZONE2 FINE STORAGE ZN,   1.2000    
 Cooling Sizing Factor Information, Zone ZONE3 BULK STORAGE ZN,   1.2000    
! <Sky Daylight Factors>, Sky Type, MonthAndDay, Daylighting Control Name, Enclosure Name, Window Name, Reference Point, Daylight Factor
 Sky Daylight Factors,Clear Sky,08/21,ZONE1 OFFICE ZN DAYLIGHTINGCONTROLS,ZONE1 OFFICE,OFFICE FRONT WALL WINDOW 1,ZONE1 OFFICE DAYLT SENSOR 1,1.0760E-002
 Sky Daylight Factors,Clear Sky,08/21,ZONE1 OFFICE ZN DAYLIGHTINGCONTROLS,ZONE1 OFFICE,OFFICE FRONT WALL WINDOW 1,ZONE1 OFFICE DAYLT SENSOR 2,2.4378E-004
 Sky Daylight Factors,Clear Turbid Sky,08/21,ZONE1 OFFICE ZN DAYLIGHTINGCONTROLS,ZONE1 OFFICE,OFFICE FRONT WALL WINDOW 1,ZONE1 OFFICE DAYLT SENSOR 1,9.1371E-003
 Sky Daylight Factors,Clear Turbid Sky,08/21,ZONE1 OFFICE ZN DAYLIGHTINGCONTROLS,ZONE1 OFFICE,OFFICE FRONT WALL WINDOW 1,ZONE1 OFFICE DAYLT SENSOR 2,2.1472E-004
 Sky Daylight Factors,Intermediate Sky,08/21,ZONE1 OFFICE ZN DAYLIGHTINGCONTROLS,ZONE1 OFFICE,OFFICE FRONT WALL WINDOW 1,ZONE1 OFFICE DAYLT SENSOR 1,6.5174E-003
 Sky Daylight Factors,Intermediate Sky,08/21,ZONE1 OFFICE ZN DAYLIGHTINGCONTROLS,ZONE1 OFFICE,OFFICE FRONT WALL WINDOW 1,ZONE1 OFFICE DAYLT SENSOR 2,1.6316E-004
 Sky Daylight Factors,Overcast Sky,08/21,ZONE1 OFFICE ZN DAYLIGHTINGCONTROLS,ZONE1 OFFICE,OFFICE FRONT WALL WINDOW 1,ZONE1 OFFICE DAYLT SENSOR 1,1.2704E-002
 Sky Daylight Factors,Overcast Sky,08/21,ZONE1 OFFICE ZN DAYLIGHTINGCONTROLS,ZONE1 OFFICE,OFFICE FRONT WALL WINDOW 1,ZONE1 OFFICE DAYLT SENSOR 2,2.3629E-004
 Sky Daylight Factors,Clear Sky,08/21,ZONE1 OFFICE ZN DAYLIGHTINGCONTROLS,ZONE1 OFFICE,OFFICE FRONT WALL WINDOW2,ZONE1 OFFICE DAYLT SENSOR 1,2.3969E-004
 Sky Daylight Factors,Clear Sky,08/21,ZONE1 OFFICE ZN DAYLIGHTINGCONTROLS,ZONE1 OFFICE,OFFICE FRONT WALL WINDOW2,ZONE1 OFFICE DAYLT SENSOR 2,3.4500E-003
 Sky Daylight Factors,Clear Turbid Sky,08/21,ZONE1 OFFICE ZN DAYLIGHTINGCONTROLS,ZONE1 OFFICE,OFFICE FRONT WALL WINDOW2,ZONE1 OFFICE DAYLT SENSOR 1,2.1177E-004
 Sky Daylight Factors,Clear Turbid Sky,08/21,ZONE1 OFFICE ZN DAYLIGHTINGCONTROLS,ZONE1 OFFICE,OFFICE FRONT WALL WINDOW2,ZONE1 OFFICE DAYLT SENSOR 2,2.8229E-003
 Sky Daylight Factors,Intermediate Sky,08/21,ZONE1 OFFICE ZN DAYLIGHTINGCONTROLS,ZONE1 OFFICE,OFFICE FRONT WALL WINDOW2,ZONE1 OFFICE DAYLT SENSOR 1,1.6246E-004
 Sky Daylight Factors,Intermediate Sky,08/21,ZONE1 OFFICE ZN DAYLIGHTINGCONTROLS,ZONE1 OFFICE,OFFICE FRONT WALL WINDOW2,ZONE1 OFFICE DAYLT SENSOR 2,1.5873E-003
 Sky Daylight Factors,Overcast Sky,08/21,ZONE1 OFFICE ZN DAYLIGHTINGCONTROLS,ZONE1 OFFICE,OFFICE FRONT WALL WINDOW2,ZONE1 OFFICE DAYLT SENSOR 1,2.3411E-004
 Sky Daylight Factors,Overcast Sky,08/21,ZONE1 OFFICE ZN DAYLIGHTINGCONTROLS,ZONE1 OFFICE,OFFICE FRONT WALL WINDOW2,ZONE1 OFFICE DAYLT SENSOR 2,3.0459E-003
 Sky Daylight Factors,Clear Sky,08/21,ZONE1 OFFICE ZN DAYLIGHTINGCONTROLS,ZONE1 OFFICE,OFFICE LEFT WALL WINDOW1,ZONE1 OFFICE DAYLT SENSOR 1,3.4027E-004
 Sky Daylight Factors,Clear Sky,08/21,ZONE1 OFFICE ZN DAYLIGHTINGCONTROLS,ZONE1 OFFICE,OFFICE LEFT WALL WINDOW1,ZONE1 OFFICE DAYLT SENSOR 2,1.5128E-004
 Sky Daylight Factors,Clear Turbid Sky,08/21,ZONE1 OFFICE ZN DAYLIGHTINGCONTROLS,ZONE1 OFFICE,OFFICE LEFT WALL WINDOW1,ZONE1 OFFICE DAYLT SENSOR 1,2.8057E-004
 Sky Daylight Factors,Clear Turbid Sky,08/21,ZONE1 OFFICE ZN DAYLIGHTINGCONTROLS,ZONE1 OFFICE,OFFICE LEFT WALL WINDOW1,ZONE1 OFFICE DAYLT SENSOR 2,1.2976E-004
 Sky Daylight Factors,Intermediate Sky,08/21,ZONE1 OFFICE ZN DAYLIGHTINGCONTROLS,ZONE1 OFFICE,OFFICE LEFT WALL WINDOW1,ZONE1 OFFICE DAYLT SENSOR 1,1.6209E-004
 Sky Daylight Factors,Intermediate Sky,08/21,ZONE1 OFFICE ZN DAYLIGHTINGCONTROLS,ZONE1 OFFICE,OFFICE LEFT WALL WINDOW1,ZONE1 OFFICE DAYLT SENSOR 2,9.2708E-005
 Sky Daylight Factors,Overcast Sky,08/21,ZONE1 OFFICE ZN DAYLIGHTINGCONTROLS,ZONE1 OFFICE,OFFICE LEFT WALL WINDOW1,ZONE1 OFFICE DAYLT SENSOR 1,2.6377E-004
 Sky Daylight Factors,Overcast Sky,08/21,ZONE1 OFFICE ZN DAYLIGHTINGCONTROLS,ZONE1 OFFICE,OFFICE LEFT WALL WINDOW1,ZONE1 OFFICE DAYLT SENSOR 2,1.5019E-004
 Sky Daylight Factors,Clear Sky,08/21,ZONE1 OFFICE ZN DAYLIGHTINGCONTROLS,ZONE1 OFFICE,OFFICE LEFT WALL WINDOW2,ZONE1 OFFICE DAYLT SENSOR 1,6.7244E-004
 Sky Daylight Factors,Clear Sky,08/21,ZONE1 OFFICE ZN DAYLIGHTINGCONTROLS,ZONE1 OFFICE,OFFICE LEFT WALL WINDOW2,ZONE1 OFFICE DAYLT SENSOR 2,1.5199E-004
 Sky Daylight Factors,Clear Turbid Sky,08/21,ZONE1 OFFICE ZN DAYLIGHTINGCONTROLS,ZONE1 OFFICE,OFFICE LEFT WALL WINDOW2,ZONE1 OFFICE DAYLT SENSOR 1,5.3924E-004
 Sky Daylight Factors,Clear Turbid Sky,08/21,ZONE1 OFFICE ZN DAYLIGHTINGCONTROLS,ZONE1 OFFICE,OFFICE LEFT WALL WINDOW2,ZONE1 OFFICE DAYLT SENSOR 2,1.3027E-004
 Sky Daylight Factors,Intermediate Sky,08/21,ZONE1 OFFICE ZN DAYLIGHTINGCONTROLS,ZONE1 OFFICE,OFFICE LEFT WALL WINDOW2,ZONE1 OFFICE DAYLT SENSOR 1,2.6889E-004
 Sky Daylight Factors,Intermediate Sky,08/21,ZONE1 OFFICE ZN DAYLIGHTINGCONTROLS,ZONE1 OFFICE,OFFICE LEFT WALL WINDOW2,ZONE1 OFFICE DAYLT SENSOR 2,9.2762E-005
 Sky Daylight Factors,Overcast Sky,08/21,ZONE1 OFFICE ZN DAYLIGHTINGCONTROLS,ZONE1 OFFICE,OFFICE LEFT WALL WINDOW2,ZONE1 OFFICE DAYLT SENSOR 1,5.1079E-004
 Sky Daylight Factors,Overcast Sky,08/21,ZONE1 OFFICE ZN DAYLIGHTINGCONTROLS,ZONE1 OFFICE,OFFICE LEFT WALL WINDOW2,ZONE1 OFFICE DAYLT SENSOR 2,1.5052E-004
 Sky Daylight Factors,Clear Sky,08/21,ZONE2 FINE STORAGE ZN DAYLIGHTINGCONTROLS,ZONE2 FINE STORAGE,FINESTORAGE_SKYLIGHT_1,ZONE2 FINE STORAGE DAYLT SENSOR 1,3.6809E-003
 Sky Daylight Factors,Clear Turbid Sky,08/21,ZONE2 FINE STORAGE ZN DAYLIGHTINGCONTROLS,ZONE2 FINE STORAGE,FINESTORAGE_SKYLIGHT_1,ZONE2 FINE STORAGE DAYLT SENSOR 1,4.1275E-003
 Sky Daylight Factors,Intermediate Sky,08/21,ZONE2 FINE STORAGE ZN DAYLIGHTINGCONTROLS,ZONE2 FINE STORAGE,FINESTORAGE_SKYLIGHT_1,ZONE2 FINE STORAGE DAYLT SENSOR 1,4.9812E-003
 Sky Daylight Factors,Overcast Sky,08/21,ZONE2 FINE STORAGE ZN DAYLIGHTINGCONTROLS,ZONE2 FINE STORAGE,FINESTORAGE_SKYLIGHT_1,ZONE2 FINE STORAGE DAYLT SENSOR 1,3.0805E-003
 Sky Daylight Factors,Clear Sky,08/21,ZONE2 FINE STORAGE ZN DAYLIGHTINGCONTROLS,ZONE2 FINE STORAGE,FINESTORAGE_SKYLIGHT_10,ZONE2 FINE STORAGE DAYLT SENSOR 1,7.0662E-005
 Sky Daylight Factors,Clear Turbid Sky,08/21,ZONE2 FINE STORAGE ZN DAYLIGHTINGCONTROLS,ZONE2 FINE STORAGE,FINESTORAGE_SKYLIGHT_10,ZONE2 FINE STORAGE DAYLT SENSOR 1,7.0824E-005
 Sky Daylight Factors,Intermediate Sky,08/21,ZONE2 FINE STORAGE ZN DAYLIGHTINGCONTROLS,ZONE2 FINE STORAGE,FINESTORAGE_SKYLIGHT_10,ZONE2 FINE STORAGE DAYLT SENSOR 1,7.0656E-005
 Sky Daylight Factors,Overcast Sky,08/21,ZONE2 FINE STORAGE ZN DAYLIGHTINGCONTROLS,ZONE2 FINE STORAGE,FINESTORAGE_SKYLIGHT_10,ZONE2 FINE STORAGE DAYLT SENSOR 1,6.9315E-005
 Sky Daylight Factors,Clear Sky,08/21,ZONE2 FINE STORAGE ZN DAYLIGHTINGCONTROLS,ZONE2 FINE STORAGE,FINESTORAGE_SKYLIGHT_11,ZONE2 FINE STORAGE DAYLT SENSOR 1,6.2991E-004
 Sky Daylight Factors,Clear Turbid Sky,08/21,ZONE2 FINE STORAGE ZN DAYLIGHTINGCONTROLS,ZONE2 FINE STORAGE,FINESTORAGE_SKYLIGHT_11,ZONE2 FINE STORAGE DAYLT SENSOR 1,5.8598E-004
 Sky Daylight Factors,Intermediate Sky,08/21,ZONE2 FINE STORAGE ZN DAYLIGHTINGCONTROLS,ZONE2 FINE STORAGE,FINESTORAGE_SKYLIGHT_11,ZONE2 FINE STORAGE DAYLT SENSOR 1,6.7544E-004
 Sky Daylight Factors,Overcast Sky,08/21,ZONE2 FINE STORAGE ZN DAYLIGHTINGCONTROLS,ZONE2 FINE STORAGE,FINESTORAGE_SKYLIGHT_11,ZONE2 FINE STORAGE DAYLT SENSOR 1,1.1308E-003
 Sky Daylight Factors,Clear Sky,08/21,ZONE2 FINE STORAGE ZN DAYLIGHTINGCONTROLS,ZONE2 FINE STORAGE,FINESTORAGE_SKYLIGHT_12,ZONE2 FINE STORAGE DAYLT SENSOR 1,2.9260E-004
 Sky Daylight Factors,Clear Turbid Sky,08/21,ZONE2 FINE STORAGE ZN DAYLIGHTINGCONTROLS,ZONE2 FINE STORAGE,FINESTORAGE_SKYLIGHT_12,ZONE2 FINE STORAGE DAYLT SENSOR 1,2.7153E-004
 Sky Daylight Factors,Intermediate Sky,08/21,ZONE2 FINE STORAGE ZN DAYLIGHTINGCONTROLS,ZONE2 FINE STORAGE,FINESTORAGE_SKYLIGHT_12,ZONE2 FINE STORAGE DAYLT SENSOR 1,2.6005E-004
 Sky Daylight Factors,Overcast Sky,08/21,ZONE2 FINE STORAGE ZN DAYLIGHTINGCONTROLS,ZONE2 FINE STORAGE,FINESTORAGE_SKYLIGHT_12,ZONE2 FINE STORAGE DAYLT SENSOR 1,3.9899E-004
 Sky Daylight Factors,Clear Sky,08/21,ZONE2 FINE STORAGE ZN DAYLIGHTINGCONTROLS,ZONE2 FINE STORAGE,FINESTORAGE_SKYLIGHT_13,ZONE2 FINE STORAGE DAYLT SENSOR 1,6.0298E-004
 Sky Daylight Factors,Clear Turbid Sky,08/21,ZONE2 FINE STORAGE ZN DAYLIGHTINGCONTROLS,ZONE2 FINE STORAGE,FINESTORAGE_SKYLIGHT_13,ZONE2 FINE STORAGE DAYLT SENSOR 1,6.0116E-004
 Sky Daylight Factors,Intermediate Sky,08/21,ZONE2 FINE STORAGE ZN DAYLIGHTINGCONTROLS,ZONE2 FINE STORAGE,FINESTORAGE_SKYLIGHT_13,ZONE2 FINE STORAGE DAYLT SENSOR 1,6.1087E-004
 Sky Daylight Factors,Overcast Sky,08/21,ZONE2 FINE STORAGE ZN DAYLIGHTINGCONTROLS,ZONE2 FINE STORAGE,FINESTORAGE_SKYLIGHT_13,ZONE2 FINE STORAGE DAYLT SENSOR 1,6.6365E-004
 Sky Daylight Factors,Clear Sky,08/21,ZONE2 FINE STORAGE ZN DAYLIGHTINGCONTROLS,ZONE2 FINE STORAGE,FINESTORAGE_SKYLIGHT_14,ZONE2 FINE STORAGE DAYLT SENSOR 1,4.5636E-004
 Sky Daylight Factors,Clear Turbid Sky,08/21,ZONE2 FINE STORAGE ZN DAYLIGHTINGCONTROLS,ZONE2 FINE STORAGE,FINESTORAGE_SKYLIGHT_14,ZONE2 FINE STORAGE DAYLT SENSOR 1,4.6306E-004
 Sky Daylight Factors,Intermediate Sky,08/21,ZONE2 FINE STORAGE ZN DAYLIGHTINGCONTROLS,ZONE2 FINE STORAGE,FINESTORAGE_SKYLIGHT_14,ZONE2 FINE STORAGE DAYLT SENSOR 1,4.1420E-004
 Sky Daylight Factors,Overcast Sky,08/21,ZONE2 FINE STORAGE ZN DAYLIGHTINGCONTROLS,ZONE2 FINE STORAGE,FINESTORAGE_SKYLIGHT_14,ZONE2 FINE STORAGE DAYLT SENSOR 1,3.9899E-004
 Sky Daylight Factors,Clear Sky,08/21,ZONE2 FINE STORAGE ZN DAYLIGHTINGCONTROLS,ZONE2 FINE STORAGE,FINESTORAGE_SKYLIGHT_2,ZONE2 FINE STORAGE DAYLT SENSOR 1,1.9098E-004
 Sky Daylight Factors,Clear Turbid Sky,08/21,ZONE2 FINE STORAGE ZN DAYLIGHTINGCONTROLS,ZONE2 FINE STORAGE,FINESTORAGE_SKYLIGHT_2,ZONE2 FINE STORAGE DAYLT SENSOR 1,1.8810E-004
 Sky Daylight Factors,Intermediate Sky,08/21,ZONE2 FINE STORAGE ZN DAYLIGHTINGCONTROLS,ZONE2 FINE STORAGE,FINESTORAGE_SKYLIGHT_2,ZONE2 FINE STORAGE DAYLT SENSOR 1,1.5952E-004
 Sky Daylight Factors,Overcast Sky,08/21,ZONE2 FINE STORAGE ZN DAYLIGHTINGCONTROLS,ZONE2 FINE STORAGE,FINESTORAGE_SKYLIGHT_2,ZONE2 FINE STORAGE DAYLT SENSOR 1,1.6391E-004
 Sky Daylight Factors,Clear Sky,08/21,ZONE2 FINE STORAGE ZN DAYLIGHTINGCONTROLS,ZONE2 FINE STORAGE,FINESTORAGE_SKYLIGHT_3,ZONE2 FINE STORAGE DAYLT SENSOR 1,1.0392E-004
 Sky Daylight Factors,Clear Turbid Sky,08/21,ZONE2 FINE STORAGE ZN DAYLIGHTINGCONTROLS,ZONE2 FINE STORAGE,FINESTORAGE_SKYLIGHT_3,ZONE2 FINE STORAGE DAYLT SENSOR 1,1.0212E-004
 Sky Daylight Factors,Intermediate Sky,08/21,ZONE2 FINE STORAGE ZN DAYLIGHTINGCONTROLS,ZONE2 FINE STORAGE,FINESTORAGE_SKYLIGHT_3,ZONE2 FINE STORAGE DAYLT SENSOR 1,9.2316E-005
 Sky Daylight Factors,Overcast Sky,08/21,ZONE2 FINE STORAGE ZN DAYLIGHTINGCONTROLS,ZONE2 FINE STORAGE,FINESTORAGE_SKYLIGHT_3,ZONE2 FINE STORAGE DAYLT SENSOR 1,9.3264E-005
 Sky Daylight Factors,Clear Sky,08/21,ZONE2 FINE STORAGE ZN DAYLIGHTINGCONTROLS,ZONE2 FINE STORAGE,FINESTORAGE_SKYLIGHT_4,ZONE2 FINE STORAGE DAYLT SENSOR 1,7.8432E-005
 Sky Daylight Factors,Clear Turbid Sky,08/21,ZONE2 FINE STORAGE ZN DAYLIGHTINGCONTROLS,ZONE2 FINE STORAGE,FINESTORAGE_SKYLIGHT_4,ZONE2 FINE STORAGE DAYLT SENSOR 1,7.8017E-005
 Sky Daylight Factors,Intermediate Sky,08/21,ZONE2 FINE STORAGE ZN DAYLIGHTINGCONTROLS,ZONE2 FINE STORAGE,FINESTORAGE_SKYLIGHT_4,ZONE2 FINE STORAGE DAYLT SENSOR 1,7.5358E-005
 Sky Daylight Factors,Overcast Sky,08/21,ZONE2 FINE STORAGE ZN DAYLIGHTINGCONTROLS,ZONE2 FINE STORAGE,FINESTORAGE_SKYLIGHT_4,ZONE2 FINE STORAGE DAYLT SENSOR 1,7.4380E-005
 Sky Daylight Factors,Clear Sky,08/21,ZONE2 FINE STORAGE ZN DAYLIGHTINGCONTROLS,ZONE2 FINE STORAGE,FINESTORAGE_SKYLIGHT_5,ZONE2 FINE STORAGE DAYLT SENSOR 1,6.9930E-005
 Sky Daylight Factors,Clear Turbid Sky,08/21,ZONE2 FINE STORAGE ZN DAYLIGHTINGCONTROLS,ZONE2 FINE STORAGE,FINESTORAGE_SKYLIGHT_5,ZONE2 FINE STORAGE DAYLT SENSOR 1,7.0208E-005
 Sky Daylight Factors,Intermediate Sky,08/21,ZONE2 FINE STORAGE ZN DAYLIGHTINGCONTROLS,ZONE2 FINE STORAGE,FINESTORAGE_SKYLIGHT_5,ZONE2 FINE STORAGE DAYLT SENSOR 1,7.0245E-005
 Sky Daylight Factors,Overcast Sky,08/21,ZONE2 FINE STORAGE ZN DAYLIGHTINGCONTROLS,ZONE2 FINE STORAGE,FINESTORAGE_SKYLIGHT_5,ZONE2 FINE STORAGE DAYLT SENSOR 1,6.8688E-005
 Sky Daylight Factors,Clear Sky,08/21,ZONE2 FINE STORAGE ZN DAYLIGHTINGCONTROLS,ZONE2 FINE STORAGE,FINESTORAGE_SKYLIGHT_6,ZONE2 FINE STORAGE DAYLT SENSOR 1,1.5202E-003
 Sky Daylight Factors,Clear Turbid Sky,08/21,ZONE2 FINE STORAGE ZN DAYLIGHTINGCONTROLS,ZONE2 FINE STORAGE,FINESTORAGE_SKYLIGHT_6,ZONE2 FINE STORAGE DAYLT SENSOR 1,1.6626E-003
 Sky Daylight Factors,Intermediate Sky,08/21,ZONE2 FINE STORAGE ZN DAYLIGHTINGCONTROLS,ZONE2 FINE STORAGE,FINESTORAGE_SKYLIGHT_6,ZONE2 FINE STORAGE DAYLT SENSOR 1,1.6994E-003
 Sky Daylight Factors,Overcast Sky,08/21,ZONE2 FINE STORAGE ZN DAYLIGHTINGCONTROLS,ZONE2 FINE STORAGE,FINESTORAGE_SKYLIGHT_6,ZONE2 FINE STORAGE DAYLT SENSOR 1,1.1308E-003
 Sky Daylight Factors,Clear Sky,08/21,ZONE2 FINE STORAGE ZN DAYLIGHTINGCONTROLS,ZONE2 FINE STORAGE,FINESTORAGE_SKYLIGHT_7,ZONE2 FINE STORAGE DAYLT SENSOR 1,2.8615E-004
 Sky Daylight Factors,Clear Turbid Sky,08/21,ZONE2 FINE STORAGE ZN DAYLIGHTINGCONTROLS,ZONE2 FINE STORAGE,FINESTORAGE_SKYLIGHT_7,ZONE2 FINE STORAGE DAYLT SENSOR 1,2.8367E-004
 Sky Daylight Factors,Intermediate Sky,08/21,ZONE2 FINE STORAGE ZN DAYLIGHTINGCONTROLS,ZONE2 FINE STORAGE,FINESTORAGE_SKYLIGHT_7,ZONE2 FINE STORAGE DAYLT SENSOR 1,2.4524E-004
 Sky Daylight Factors,Overcast Sky,08/21,ZONE2 FINE STORAGE ZN DAYLIGHTINGCONTROLS,ZONE2 FINE STORAGE,FINESTORAGE_SKYLIGHT_7,ZONE2 FINE STORAGE DAYLT SENSOR 1,2.5443E-004
 Sky Daylight Factors,Clear Sky,08/21,ZONE2 FINE STORAGE ZN DAYLIGHTINGCONTROLS,ZONE2 FINE STORAGE,FINESTORAGE_SKYLIGHT_8,ZONE2 FINE STORAGE DAYLT SENSOR 1,1.1746E-004
 Sky Daylight Factors,Clear Turbid Sky,08/21,ZONE2 FINE STORAGE ZN DAYLIGHTINGCONTROLS,ZONE2 FINE STORAGE,FINESTORAGE_SKYLIGHT_8,ZONE2 FINE STORAGE DAYLT SENSOR 1,1.1465E-004
 Sky Daylight Factors,Intermediate Sky,08/21,ZONE2 FINE STORAGE ZN DAYLIGHTINGCONTROLS,ZONE2 FINE STORAGE,FINESTORAGE_SKYLIGHT_8,ZONE2 FINE STORAGE DAYLT SENSOR 1,1.0212E-004
 Sky Daylight Factors,Overcast Sky,08/21,ZONE2 FINE STORAGE ZN DAYLIGHTINGCONTROLS,ZONE2 FINE STORAGE,FINESTORAGE_SKYLIGHT_8,ZONE2 FINE STORAGE DAYLT SENSOR 1,1.0628E-004
 Sky Daylight Factors,Clear Sky,08/21,ZONE2 FINE STORAGE ZN DAYLIGHTINGCONTROLS,ZONE2 FINE STORAGE,FINESTORAGE_SKYLIGHT_9,ZONE2 FINE STORAGE DAYLT SENSOR 1,8.1194E-005
 Sky Daylight Factors,Clear Turbid Sky,08/21,ZONE2 FINE STORAGE ZN DAYLIGHTINGCONTROLS,ZONE2 FINE STORAGE,FINESTORAGE_SKYLIGHT_9,ZONE2 FINE STORAGE DAYLT SENSOR 1,8.0439E-005
 Sky Daylight Factors,Intermediate Sky,08/21,ZONE2 FINE STORAGE ZN DAYLIGHTINGCONTROLS,ZONE2 FINE STORAGE,FINESTORAGE_SKYLIGHT_9,ZONE2 FINE STORAGE DAYLT SENSOR 1,7.7087E-005
 Sky Daylight Factors,Overcast Sky,08/21,ZONE2 FINE STORAGE ZN DAYLIGHTINGCONTROLS,ZONE2 FINE STORAGE,FINESTORAGE_SKYLIGHT_9,ZONE2 FINE STORAGE DAYLT SENSOR 1,7.6889E-005
 Sky Daylight Factors,Clear Sky,08/21,ZONE3 BULK STORAGE ZN DAYLIGHTINGCONTROLS,ZONE3 BULK STORAGE,SKYLIGHT_R1C1,ZONE3 BULK STORAGE DAYLT SENSOR 1,3.6457E-003
 Sky Daylight Factors,Clear Turbid Sky,08/21,ZONE3 BULK STORAGE ZN DAYLIGHTINGCONTROLS,ZONE3 BULK STORAGE,SKYLIGHT_R1C1,ZONE3 BULK STORAGE DAYLT SENSOR 1,4.0918E-003
 Sky Daylight Factors,Intermediate Sky,08/21,ZONE3 BULK STORAGE ZN DAYLIGHTINGCONTROLS,ZONE3 BULK STORAGE,SKYLIGHT_R1C1,ZONE3 BULK STORAGE DAYLT SENSOR 1,4.9442E-003
 Sky Daylight Factors,Overcast Sky,08/21,ZONE3 BULK STORAGE ZN DAYLIGHTINGCONTROLS,ZONE3 BULK STORAGE,SKYLIGHT_R1C1,ZONE3 BULK STORAGE DAYLT SENSOR 1,3.0444E-003
 Sky Daylight Factors,Clear Sky,08/21,ZONE3 BULK STORAGE ZN DAYLIGHTINGCONTROLS,ZONE3 BULK STORAGE,SKYLIGHT_R1C2,ZONE3 BULK STORAGE DAYLT SENSOR 1,4.1999E-004
 Sky Daylight Factors,Clear Turbid Sky,08/21,ZONE3 BULK STORAGE ZN DAYLIGHTINGCONTROLS,ZONE3 BULK STORAGE,SKYLIGHT_R1C2,ZONE3 BULK STORAGE DAYLT SENSOR 1,4.1077E-004
 Sky Daylight Factors,Intermediate Sky,08/21,ZONE3 BULK STORAGE ZN DAYLIGHTINGCONTROLS,ZONE3 BULK STORAGE,SKYLIGHT_R1C2,ZONE3 BULK STORAGE DAYLT SENSOR 1,3.9770E-004
 Sky Daylight Factors,Overcast Sky,08/21,ZONE3 BULK STORAGE ZN DAYLIGHTINGCONTROLS,ZONE3 BULK STORAGE,SKYLIGHT_R1C2,ZONE3 BULK STORAGE DAYLT SENSOR 1,4.6703E-004
 Sky Daylight Factors,Clear Sky,08/21,ZONE3 BULK STORAGE ZN DAYLIGHTINGCONTROLS,ZONE3 BULK STORAGE,SKYLIGHT_R1C3,ZONE3 BULK STORAGE DAYLT SENSOR 1,7.1618E-005
 Sky Daylight Factors,Clear Turbid Sky,08/21,ZONE3 BULK STORAGE ZN DAYLIGHTINGCONTROLS,ZONE3 BULK STORAGE,SKYLIGHT_R1C3,ZONE3 BULK STORAGE DAYLT SENSOR 1,6.7229E-005
 Sky Daylight Factors,Intermediate Sky,08/21,ZONE3 BULK STORAGE ZN DAYLIGHTINGCONTROLS,ZONE3 BULK STORAGE,SKYLIGHT_R1C3,ZONE3 BULK STORAGE DAYLT SENSOR 1,5.7239E-005
 Sky Daylight Factors,Overcast Sky,08/21,ZONE3 BULK STORAGE ZN DAYLIGHTINGCONTROLS,ZONE3 BULK STORAGE,SKYLIGHT_R1C3,ZONE3 BULK STORAGE DAYLT SENSOR 1,6.8987E-005
 Sky Daylight Factors,Clear Sky,08/21,ZONE3 BULK STORAGE ZN DAYLIGHTINGCONTROLS,ZONE3 BULK STORAGE,SKYLIGHT_R1C4,ZONE3 BULK STORAGE DAYLT SENSOR 1,3.7404E-005
 Sky Daylight Factors,Clear Turbid Sky,08/21,ZONE3 BULK STORAGE ZN DAYLIGHTINGCONTROLS,ZONE3 BULK STORAGE,SKYLIGHT_R1C4,ZONE3 BULK STORAGE DAYLT SENSOR 1,3.6572E-005
 Sky Daylight Factors,Intermediate Sky,08/21,ZONE3 BULK STORAGE ZN DAYLIGHTINGCONTROLS,ZONE3 BULK STORAGE,SKYLIGHT_R1C4,ZONE3 BULK STORAGE DAYLT SENSOR 1,3.4641E-005
 Sky Daylight Factors,Overcast Sky,08/21,ZONE3 BULK STORAGE ZN DAYLIGHTINGCONTROLS,ZONE3 BULK STORAGE,SKYLIGHT_R1C4,ZONE3 BULK STORAGE DAYLT SENSOR 1,3.5697E-005
 Sky Daylight Factors,Clear Sky,08/21,ZONE3 BULK STORAGE ZN DAYLIGHTINGCONTROLS,ZONE3 BULK STORAGE,SKYLIGHT_R2C1,ZONE3 BULK STORAGE DAYLT SENSOR 1,6.2009E-004
 Sky Daylight Factors,Clear Turbid Sky,08/21,ZONE3 BULK STORAGE ZN DAYLIGHTINGCONTROLS,ZONE3 BULK STORAGE,SKYLIGHT_R2C1,ZONE3 BULK STORAGE DAYLT SENSOR 1,5.7559E-004
 Sky Daylight Factors,Intermediate Sky,08/21,ZONE3 BULK STORAGE ZN DAYLIGHTINGCONTROLS,ZONE3 BULK STORAGE,SKYLIGHT_R2C1,ZONE3 BULK STORAGE DAYLT SENSOR 1,6.7416E-004
 Sky Daylight Factors,Overcast Sky,08/21,ZONE3 BULK STORAGE ZN DAYLIGHTINGCONTROLS,ZONE3 BULK STORAGE,SKYLIGHT_R2C1,ZONE3 BULK STORAGE DAYLT SENSOR 1,1.1385E-003
 Sky Daylight Factors,Clear Sky,08/21,ZONE3 BULK STORAGE ZN DAYLIGHTINGCONTROLS,ZONE3 BULK STORAGE,SKYLIGHT_R2C2,ZONE3 BULK STORAGE DAYLT SENSOR 1,2.1870E-004
 Sky Daylight Factors,Clear Turbid Sky,08/21,ZONE3 BULK STORAGE ZN DAYLIGHTINGCONTROLS,ZONE3 BULK STORAGE,SKYLIGHT_R2C2,ZONE3 BULK STORAGE DAYLT SENSOR 1,2.0004E-004
 Sky Daylight Factors,Intermediate Sky,08/21,ZONE3 BULK STORAGE ZN DAYLIGHTINGCONTROLS,ZONE3 BULK STORAGE,SKYLIGHT_R2C2,ZONE3 BULK STORAGE DAYLT SENSOR 1,1.8364E-004
 Sky Daylight Factors,Overcast Sky,08/21,ZONE3 BULK STORAGE ZN DAYLIGHTINGCONTROLS,ZONE3 BULK STORAGE,SKYLIGHT_R2C2,ZONE3 BULK STORAGE DAYLT SENSOR 1,2.9492E-004
 Sky Daylight Factors,Clear Sky,08/21,ZONE3 BULK STORAGE ZN DAYLIGHTINGCONTROLS,ZONE3 BULK STORAGE,SKYLIGHT_R2C3,ZONE3 BULK STORAGE DAYLT SENSOR 1,6.1019E-005
 Sky Daylight Factors,Clear Turbid Sky,08/21,ZONE3 BULK STORAGE ZN DAYLIGHTINGCONTROLS,ZONE3 BULK STORAGE,SKYLIGHT_R2C3,ZONE3 BULK STORAGE DAYLT SENSOR 1,5.6983E-005
 Sky Daylight Factors,Intermediate Sky,08/21,ZONE3 BULK STORAGE ZN DAYLIGHTINGCONTROLS,ZONE3 BULK STORAGE,SKYLIGHT_R2C3,ZONE3 BULK STORAGE DAYLT SENSOR 1,4.9286E-005
 Sky Daylight Factors,Overcast Sky,08/21,ZONE3 BULK STORAGE ZN DAYLIGHTINGCONTROLS,ZONE3 BULK STORAGE,SKYLIGHT_R2C3,ZONE3 BULK STORAGE DAYLT SENSOR 1,6.1481E-005
 Sky Daylight Factors,Clear Sky,08/21,ZONE3 BULK STORAGE ZN DAYLIGHTINGCONTROLS,ZONE3 BULK STORAGE,SKYLIGHT_R2C4,ZONE3 BULK STORAGE DAYLT SENSOR 1,3.6170E-005
 Sky Daylight Factors,Clear Turbid Sky,08/21,ZONE3 BULK STORAGE ZN DAYLIGHTINGCONTROLS,ZONE3 BULK STORAGE,SKYLIGHT_R2C4,ZONE3 BULK STORAGE DAYLT SENSOR 1,3.5408E-005
 Sky Daylight Factors,Intermediate Sky,08/21,ZONE3 BULK STORAGE ZN DAYLIGHTINGCONTROLS,ZONE3 BULK STORAGE,SKYLIGHT_R2C4,ZONE3 BULK STORAGE DAYLT SENSOR 1,3.3830E-005
 Sky Daylight Factors,Overcast Sky,08/21,ZONE3 BULK STORAGE ZN DAYLIGHTINGCONTROLS,ZONE3 BULK STORAGE,SKYLIGHT_R2C4,ZONE3 BULK STORAGE DAYLT SENSOR 1,3.5035E-005
 Sky Daylight Factors,Clear Sky,08/21,ZONE3 BULK STORAGE ZN DAYLIGHTINGCONTROLS,ZONE3 BULK STORAGE,SKYLIGHT_R3C1,ZONE3 BULK STORAGE DAYLT SENSOR 1,1.4948E-004
 Sky Daylight Factors,Clear Turbid Sky,08/21,ZONE3 BULK STORAGE ZN DAYLIGHTINGCONTROLS,ZONE3 BULK STORAGE,SKYLIGHT_R3C1,ZONE3 BULK STORAGE DAYLT SENSOR 1,1.3096E-004
 Sky Daylight Factors,Intermediate Sky,08/21,ZONE3 BULK STORAGE ZN DAYLIGHTINGCONTROLS,ZONE3 BULK STORAGE,SKYLIGHT_R3C1,ZONE3 BULK STORAGE DAYLT SENSOR 1,1.1108E-004
 Sky Daylight Factors,Overcast Sky,08/21,ZONE3 BULK STORAGE ZN DAYLIGHTINGCONTROLS,ZONE3 BULK STORAGE,SKYLIGHT_R3C1,ZONE3 BULK STORAGE DAYLT SENSOR 1,2.3418E-004
 Sky Daylight Factors,Clear Sky,08/21,ZONE3 BULK STORAGE ZN DAYLIGHTINGCONTROLS,ZONE3 BULK STORAGE,SKYLIGHT_R3C2,ZONE3 BULK STORAGE DAYLT SENSOR 1,9.4746E-005
 Sky Daylight Factors,Clear Turbid Sky,08/21,ZONE3 BULK STORAGE ZN DAYLIGHTINGCONTROLS,ZONE3 BULK STORAGE,SKYLIGHT_R3C2,ZONE3 BULK STORAGE DAYLT SENSOR 1,8.5070E-005
 Sky Daylight Factors,Intermediate Sky,08/21,ZONE3 BULK STORAGE ZN DAYLIGHTINGCONTROLS,ZONE3 BULK STORAGE,SKYLIGHT_R3C2,ZONE3 BULK STORAGE DAYLT SENSOR 1,7.1198E-005
 Sky Daylight Factors,Overcast Sky,08/21,ZONE3 BULK STORAGE ZN DAYLIGHTINGCONTROLS,ZONE3 BULK STORAGE,SKYLIGHT_R3C2,ZONE3 BULK STORAGE DAYLT SENSOR 1,1.1844E-004
 Sky Daylight Factors,Clear Sky,08/21,ZONE3 BULK STORAGE ZN DAYLIGHTINGCONTROLS,ZONE3 BULK STORAGE,SKYLIGHT_R3C3,ZONE3 BULK STORAGE DAYLT SENSOR 1,3.4164E-005
 Sky Daylight Factors,Clear Turbid Sky,08/21,ZONE3 BULK STORAGE ZN DAYLIGHTINGCONTROLS,ZONE3 BULK STORAGE,SKYLIGHT_R3C3,ZONE3 BULK STORAGE DAYLT SENSOR 1,3.3635E-005
 Sky Daylight Factors,Intermediate Sky,08/21,ZONE3 BULK STORAGE ZN DAYLIGHTINGCONTROLS,ZONE3 BULK STORAGE,SKYLIGHT_R3C3,ZONE3 BULK STORAGE DAYLT SENSOR 1,3.2637E-005
 Sky Daylight Factors,Overcast Sky,08/21,ZONE3 BULK STORAGE ZN DAYLIGHTINGCONTROLS,ZONE3 BULK STORAGE,SKYLIGHT_R3C3,ZONE3 BULK STORAGE DAYLT SENSOR 1,3.3525E-005
 Sky Daylight Factors,Clear Sky,08/21,ZONE3 BULK STORAGE ZN DAYLIGHTINGCONTROLS,ZONE3 BULK STORAGE,SKYLIGHT_R3C4,ZONE3 BULK STORAGE DAYLT SENSOR 1,4.7555E-005
 Sky Daylight Factors,Clear Turbid Sky,08/21,ZONE3 BULK STORAGE ZN DAYLIGHTINGCONTROLS,ZONE3 BULK STORAGE,SKYLIGHT_R3C4,ZONE3 BULK STORAGE DAYLT SENSOR 1,4.4918E-005
 Sky Daylight Factors,Intermediate Sky,08/21,ZONE3 BULK STORAGE ZN DAYLIGHTINGCONTROLS,ZONE3 BULK STORAGE,SKYLIGHT_R3C4,ZONE3 BULK STORAGE DAYLT SENSOR 1,4.0116E-005
 Sky Daylight Factors,Overcast Sky,08/21,ZONE3 BULK STORAGE ZN DAYLIGHTINGCONTROLS,ZONE3 BULK STORAGE,SKYLIGHT_R3C4,ZONE3 BULK STORAGE DAYLT SENSOR 1,4.7966E-005
 Sky Daylight Factors,Clear Sky,08/21,ZONE3 BULK STORAGE ZN DAYLIGHTINGCONTROLS,ZONE3 BULK STORAGE,SKYLIGHT_R4C1,ZONE3 BULK STORAGE DAYLT SENSOR 1,6.2857E-005
 Sky Daylight Factors,Clear Turbid Sky,08/21,ZONE3 BULK STORAGE ZN DAYLIGHTINGCONTROLS,ZONE3 BULK STORAGE,SKYLIGHT_R4C1,ZONE3 BULK STORAGE DAYLT SENSOR 1,5.6916E-005
 Sky Daylight Factors,Intermediate Sky,08/21,ZONE3 BULK STORAGE ZN DAYLIGHTINGCONTROLS,ZONE3 BULK STORAGE,SKYLIGHT_R4C1,ZONE3 BULK STORAGE DAYLT SENSOR 1,4.7152E-005
 Sky Daylight Factors,Overcast Sky,08/21,ZONE3 BULK STORAGE ZN DAYLIGHTINGCONTROLS,ZONE3 BULK STORAGE,SKYLIGHT_R4C1,ZONE3 BULK STORAGE DAYLT SENSOR 1,7.4572E-005
 Sky Daylight Factors,Clear Sky,08/21,ZONE3 BULK STORAGE ZN DAYLIGHTINGCONTROLS,ZONE3 BULK STORAGE,SKYLIGHT_R4C2,ZONE3 BULK STORAGE DAYLT SENSOR 1,5.2385E-005
 Sky Daylight Factors,Clear Turbid Sky,08/21,ZONE3 BULK STORAGE ZN DAYLIGHTINGCONTROLS,ZONE3 BULK STORAGE,SKYLIGHT_R4C2,ZONE3 BULK STORAGE DAYLT SENSOR 1,4.8536E-005
 Sky Daylight Factors,Intermediate Sky,08/21,ZONE3 BULK STORAGE ZN DAYLIGHTINGCONTROLS,ZONE3 BULK STORAGE,SKYLIGHT_R4C2,ZONE3 BULK STORAGE DAYLT SENSOR 1,4.1972E-005
 Sky Daylight Factors,Overcast Sky,08/21,ZONE3 BULK STORAGE ZN DAYLIGHTINGCONTROLS,ZONE3 BULK STORAGE,SKYLIGHT_R4C2,ZONE3 BULK STORAGE DAYLT SENSOR 1,5.6774E-005
 Sky Daylight Factors,Clear Sky,08/21,ZONE3 BULK STORAGE ZN DAYLIGHTINGCONTROLS,ZONE3 BULK STORAGE,SKYLIGHT_R4C3,ZONE3 BULK STORAGE DAYLT SENSOR 1,3.8516E-005
 Sky Daylight Factors,Clear Turbid Sky,08/21,ZONE3 BULK STORAGE ZN DAYLIGHTINGCONTROLS,ZONE3 BULK STORAGE,SKYLIGHT_R4C3,ZONE3 BULK STORAGE DAYLT SENSOR 1,3.7155E-005
 Sky Daylight Factors,Intermediate Sky,08/21,ZONE3 BULK STORAGE ZN DAYLIGHTINGCONTROLS,ZONE3 BULK STORAGE,SKYLIGHT_R4C3,ZONE3 BULK STORAGE DAYLT SENSOR 1,3.4688E-005
 Sky Daylight Factors,Overcast Sky,08/21,ZONE3 BULK STORAGE ZN DAYLIGHTINGCONTROLS,ZONE3 BULK STORAGE,SKYLIGHT_R4C3,ZONE3 BULK STORAGE DAYLT SENSOR 1,3.8411E-005
 Sky Daylight Factors,Clear Sky,08/21,ZONE3 BULK STORAGE ZN DAYLIGHTINGCONTROLS,ZONE3 BULK STORAGE,SKYLIGHT_R4C4,ZONE3 BULK STORAGE DAYLT SENSOR 1,3.2275E-005
 Sky Daylight Factors,Clear Turbid Sky,08/21,ZONE3 BULK STORAGE ZN DAYLIGHTINGCONTROLS,ZONE3 BULK STORAGE,SKYLIGHT_R4C4,ZONE3 BULK STORAGE DAYLT SENSOR 1,3.2018E-005
 Sky Daylight Factors,Intermediate Sky,08/21,ZONE3 BULK STORAGE ZN DAYLIGHTINGCONTROLS,ZONE3 BULK STORAGE,SKYLIGHT_R4C4,ZONE3 BULK STORAGE DAYLT SENSOR 1,3.1604E-005
 Sky Daylight Factors,Overcast Sky,08/21,ZONE3 BULK STORAGE ZN DAYLIGHTINGCONTROLS,ZONE3 BULK STORAGE,SKYLIGHT_R4C4,ZONE3 BULK STORAGE DAYLT SENSOR 1,3.1992E-005
 Sky Daylight Factors,Clear Sky,08/21,ZONE3 BULK STORAGE ZN DAYLIGHTINGCONTROLS,ZONE3 BULK STORAGE,SKYLIGHT_R5C1,ZONE3 BULK STORAGE DAYLT SENSOR 1,4.0764E-005
 Sky Daylight Factors,Clear Turbid Sky,08/21,ZONE3 BULK STORAGE ZN DAYLIGHTINGCONTROLS,ZONE3 BULK STORAGE,SKYLIGHT_R5C1,ZONE3 BULK STORAGE DAYLT SENSOR 1,3.8741E-005
 Sky Daylight Factors,Intermediate Sky,08/21,ZONE3 BULK STORAGE ZN DAYLIGHTINGCONTROLS,ZONE3 BULK STORAGE,SKYLIGHT_R5C1,ZONE3 BULK STORAGE DAYLT SENSOR 1,3.5088E-005
 Sky Daylight Factors,Overcast Sky,08/21,ZONE3 BULK STORAGE ZN DAYLIGHTINGCONTROLS,ZONE3 BULK STORAGE,SKYLIGHT_R5C1,ZONE3 BULK STORAGE DAYLT SENSOR 1,4.2200E-005
 Sky Daylight Factors,Clear Sky,08/21,ZONE3 BULK STORAGE ZN DAYLIGHTINGCONTROLS,ZONE3 BULK STORAGE,SKYLIGHT_R5C2,ZONE3 BULK STORAGE DAYLT SENSOR 1,3.8147E-005
 Sky Daylight Factors,Clear Turbid Sky,08/21,ZONE3 BULK STORAGE ZN DAYLIGHTINGCONTROLS,ZONE3 BULK STORAGE,SKYLIGHT_R5C2,ZONE3 BULK STORAGE DAYLT SENSOR 1,3.6700E-005
 Sky Daylight Factors,Intermediate Sky,08/21,ZONE3 BULK STORAGE ZN DAYLIGHTINGCONTROLS,ZONE3 BULK STORAGE,SKYLIGHT_R5C2,ZONE3 BULK STORAGE DAYLT SENSOR 1,3.4101E-005
 Sky Daylight Factors,Overcast Sky,08/21,ZONE3 BULK STORAGE ZN DAYLIGHTINGCONTROLS,ZONE3 BULK STORAGE,SKYLIGHT_R5C2,ZONE3 BULK STORAGE DAYLT SENSOR 1,3.8635E-005
 Sky Daylight Factors,Clear Sky,08/21,ZONE3 BULK STORAGE ZN DAYLIGHTINGCONTROLS,ZONE3 BULK STORAGE,SKYLIGHT_R5C3,ZONE3 BULK STORAGE DAYLT SENSOR 1,3.3675E-005
 Sky Daylight Factors,Clear Turbid Sky,08/21,ZONE3 BULK STORAGE ZN DAYLIGHTINGCONTROLS,ZONE3 BULK STORAGE,SKYLIGHT_R5C3,ZONE3 BULK STORAGE DAYLT SENSOR 1,3.3110E-005
 Sky Daylight Factors,Intermediate Sky,08/21,ZONE3 BULK STORAGE ZN DAYLIGHTINGCONTROLS,ZONE3 BULK STORAGE,SKYLIGHT_R5C3,ZONE3 BULK STORAGE DAYLT SENSOR 1,3.2132E-005
 Sky Daylight Factors,Overcast Sky,08/21,ZONE3 BULK STORAGE ZN DAYLIGHTINGCONTROLS,ZONE3 BULK STORAGE,SKYLIGHT_R5C3,ZONE3 BULK STORAGE DAYLT SENSOR 1,3.3519E-005
 Sky Daylight Factors,Clear Sky,08/21,ZONE3 BULK STORAGE ZN DAYLIGHTINGCONTROLS,ZONE3 BULK STORAGE,SKYLIGHT_R5C4,ZONE3 BULK STORAGE DAYLT SENSOR 1,3.0881E-005
 Sky Daylight Factors,Clear Turbid Sky,08/21,ZONE3 BULK STORAGE ZN DAYLIGHTINGCONTROLS,ZONE3 BULK STORAGE,SKYLIGHT_R5C4,ZONE3 BULK STORAGE DAYLT SENSOR 1,3.0850E-005
 Sky Daylight Factors,Intermediate Sky,08/21,ZONE3 BULK STORAGE ZN DAYLIGHTINGCONTROLS,ZONE3 BULK STORAGE,SKYLIGHT_R5C4,ZONE3 BULK STORAGE DAYLT SENSOR 1,3.0903E-005
 Sky Daylight Factors,Overcast Sky,08/21,ZONE3 BULK STORAGE ZN DAYLIGHTINGCONTROLS,ZONE3 BULK STORAGE,SKYLIGHT_R5C4,ZONE3 BULK STORAGE DAYLT SENSOR 1,3.0859E-005
 Sky Daylight Factors,Clear Sky,08/21,ZONE3 BULK STORAGE ZN DAYLIGHTINGCONTROLS,ZONE3 BULK STORAGE,SKYLIGHT_R6C1,ZONE3 BULK STORAGE DAYLT SENSOR 1,3.3655E-005
 Sky Daylight Factors,Clear Turbid Sky,08/21,ZONE3 BULK STORAGE ZN DAYLIGHTINGCONTROLS,ZONE3 BULK STORAGE,SKYLIGHT_R6C1,ZONE3 BULK STORAGE DAYLT SENSOR 1,3.3003E-005
 Sky Daylight Factors,Intermediate Sky,08/21,ZONE3 BULK STORAGE ZN DAYLIGHTINGCONTROLS,ZONE3 BULK STORAGE,SKYLIGHT_R6C1,ZONE3 BULK STORAGE DAYLT SENSOR 1,3.1849E-005
 Sky Daylight Factors,Overcast Sky,08/21,ZONE3 BULK STORAGE ZN DAYLIGHTINGCONTROLS,ZONE3 BULK STORAGE,SKYLIGHT_R6C1,ZONE3 BULK STORAGE DAYLT SENSOR 1,3.3769E-005
 Sky Daylight Factors,Clear Sky,08/21,ZONE3 BULK STORAGE ZN DAYLIGHTINGCONTROLS,ZONE3 BULK STORAGE,SKYLIGHT_R6C2,ZONE3 BULK STORAGE DAYLT SENSOR 1,3.2849E-005
 Sky Daylight Factors,Clear Turbid Sky,08/21,ZONE3 BULK STORAGE ZN DAYLIGHTINGCONTROLS,ZONE3 BULK STORAGE,SKYLIGHT_R6C2,ZONE3 BULK STORAGE DAYLT SENSOR 1,3.2386E-005
 Sky Daylight Factors,Intermediate Sky,08/21,ZONE3 BULK STORAGE ZN DAYLIGHTINGCONTROLS,ZONE3 BULK STORAGE,SKYLIGHT_R6C2,ZONE3 BULK STORAGE DAYLT SENSOR 1,3.1602E-005
 Sky Daylight Factors,Overcast Sky,08/21,ZONE3 BULK STORAGE ZN DAYLIGHTINGCONTROLS,ZONE3 BULK STORAGE,SKYLIGHT_R6C2,ZONE3 BULK STORAGE DAYLT SENSOR 1,3.2858E-005
 Sky Daylight Factors,Clear Sky,08/21,ZONE3 BULK STORAGE ZN DAYLIGHTINGCONTROLS,ZONE3 BULK STORAGE,SKYLIGHT_R6C3,ZONE3 BULK STORAGE DAYLT SENSOR 1,3.1237E-005
 Sky Daylight Factors,Clear Turbid Sky,08/21,ZONE3 BULK STORAGE ZN DAYLIGHTINGCONTROLS,ZONE3 BULK STORAGE,SKYLIGHT_R6C3,ZONE3 BULK STORAGE DAYLT SENSOR 1,3.1111E-005
 Sky Daylight Factors,Intermediate Sky,08/21,ZONE3 BULK STORAGE ZN DAYLIGHTINGCONTROLS,ZONE3 BULK STORAGE,SKYLIGHT_R6C3,ZONE3 BULK STORAGE DAYLT SENSOR 1,3.0984E-005
 Sky Daylight Factors,Overcast Sky,08/21,ZONE3 BULK STORAGE ZN DAYLIGHTINGCONTROLS,ZONE3 BULK STORAGE,SKYLIGHT_R6C3,ZONE3 BULK STORAGE DAYLT SENSOR 1,3.1249E-005
 Sky Daylight Factors,Clear Sky,08/21,ZONE3 BULK STORAGE ZN DAYLIGHTINGCONTROLS,ZONE3 BULK STORAGE,SKYLIGHT_R6C4,ZONE3 BULK STORAGE DAYLT SENSOR 1,2.9969E-005
 Sky Daylight Factors,Clear Turbid Sky,08/21,ZONE3 BULK STORAGE ZN DAYLIGHTINGCONTROLS,ZONE3 BULK STORAGE,SKYLIGHT_R6C4,ZONE3 BULK STORAGE DAYLT SENSOR 1,3.0099E-005
 Sky Daylight Factors,Intermediate Sky,08/21,ZONE3 BULK STORAGE ZN DAYLIGHTINGCONTROLS,ZONE3 BULK STORAGE,SKYLIGHT_R6C4,ZONE3 BULK STORAGE DAYLT SENSOR 1,3.0481E-005
 Sky Daylight Factors,Overcast Sky,08/21,ZONE3 BULK STORAGE ZN DAYLIGHTINGCONTROLS,ZONE3 BULK STORAGE,SKYLIGHT_R6C4,ZONE3 BULK STORAGE DAYLT SENSOR 1,3.0141E-005
 Sky Daylight Factors,Clear Sky,08/21,ZONE3 BULK STORAGE ZN DAYLIGHTINGCONTROLS,ZONE3 BULK STORAGE,SKYLIGHT_R7C1,ZONE3 BULK STORAGE DAYLT SENSOR 1,3.0936E-005
 Sky Daylight Factors,Clear Turbid Sky,08/21,ZONE3 BULK STORAGE ZN DAYLIGHTINGCONTROLS,ZONE3 BULK STORAGE,SKYLIGHT_R7C1,ZONE3 BULK STORAGE DAYLT SENSOR 1,3.0834E-005
 Sky Daylight Factors,Intermediate Sky,08/21,ZONE3 BULK STORAGE ZN DAYLIGHTINGCONTROLS,ZONE3 BULK STORAGE,SKYLIGHT_R7C1,ZONE3 BULK STORAGE DAYLT SENSOR 1,3.0751E-005
 Sky Daylight Factors,Overcast Sky,08/21,ZONE3 BULK STORAGE ZN DAYLIGHTINGCONTROLS,ZONE3 BULK STORAGE,SKYLIGHT_R7C1,ZONE3 BULK STORAGE DAYLT SENSOR 1,3.1051E-005
 Sky Daylight Factors,Clear Sky,08/21,ZONE3 BULK STORAGE ZN DAYLIGHTINGCONTROLS,ZONE3 BULK STORAGE,SKYLIGHT_R7C2,ZONE3 BULK STORAGE DAYLT SENSOR 1,3.0645E-005
 Sky Daylight Factors,Clear Turbid Sky,08/21,ZONE3 BULK STORAGE ZN DAYLIGHTINGCONTROLS,ZONE3 BULK STORAGE,SKYLIGHT_R7C2,ZONE3 BULK STORAGE DAYLT SENSOR 1,3.0614E-005
 Sky Daylight Factors,Intermediate Sky,08/21,ZONE3 BULK STORAGE ZN DAYLIGHTINGCONTROLS,ZONE3 BULK STORAGE,SKYLIGHT_R7C2,ZONE3 BULK STORAGE DAYLT SENSOR 1,3.0676E-005
 Sky Daylight Factors,Overcast Sky,08/21,ZONE3 BULK STORAGE ZN DAYLIGHTINGCONTROLS,ZONE3 BULK STORAGE,SKYLIGHT_R7C2,ZONE3 BULK STORAGE DAYLT SENSOR 1,3.0769E-005
 Sky Daylight Factors,Clear Sky,08/21,ZONE3 BULK STORAGE ZN DAYLIGHTINGCONTROLS,ZONE3 BULK STORAGE,SKYLIGHT_R7C3,ZONE3 BULK STORAGE DAYLT SENSOR 1,3.0000E-005
 Sky Daylight Factors,Clear Turbid Sky,08/21,ZONE3 BULK STORAGE ZN DAYLIGHTINGCONTROLS,ZONE3 BULK STORAGE,SKYLIGHT_R7C3,ZONE3 BULK STORAGE DAYLT SENSOR 1,3.0110E-005
 Sky Daylight Factors,Intermediate Sky,08/21,ZONE3 BULK STORAGE ZN DAYLIGHTINGCONTROLS,ZONE3 BULK STORAGE,SKYLIGHT_R7C3,ZONE3 BULK STORAGE DAYLT SENSOR 1,3.0455E-005
 Sky Daylight Factors,Overcast Sky,08/21,ZONE3 BULK STORAGE ZN DAYLIGHTINGCONTROLS,ZONE3 BULK STORAGE,SKYLIGHT_R7C3,ZONE3 BULK STORAGE DAYLT SENSOR 1,3.0197E-005
 Sky Daylight Factors,Clear Sky,08/21,ZONE3 BULK STORAGE ZN DAYLIGHTINGCONTROLS,ZONE3 BULK STORAGE,SKYLIGHT_R7C4,ZONE3 BULK STORAGE DAYLT SENSOR 1,2.9404E-005
 Sky Daylight Factors,Clear Turbid Sky,08/21,ZONE3 BULK STORAGE ZN DAYLIGHTINGCONTROLS,ZONE3 BULK STORAGE,SKYLIGHT_R7C4,ZONE3 BULK STORAGE DAYLT SENSOR 1,2.9638E-005
 Sky Daylight Factors,Intermediate Sky,08/21,ZONE3 BULK STORAGE ZN DAYLIGHTINGCONTROLS,ZONE3 BULK STORAGE,SKYLIGHT_R7C4,ZONE3 BULK STORAGE DAYLT SENSOR 1,3.0238E-005
 Sky Daylight Factors,Overcast Sky,08/21,ZONE3 BULK STORAGE ZN DAYLIGHTINGCONTROLS,ZONE3 BULK STORAGE,SKYLIGHT_R7C4,ZONE3 BULK STORAGE DAYLT SENSOR 1,2.9716E-005
 Sky Daylight Factors,Clear Sky,08/21,ZONE3 BULK STORAGE ZN DAYLIGHTINGCONTROLS,ZONE3 BULK STORAGE,SKYLIGHT_R8C1,ZONE3 BULK STORAGE DAYLT SENSOR 1,2.9754E-005
 Sky Daylight Factors,Clear Turbid Sky,08/21,ZONE3 BULK STORAGE ZN DAYLIGHTINGCONTROLS,ZONE3 BULK STORAGE,SKYLIGHT_R8C1,ZONE3 BULK STORAGE DAYLT SENSOR 1,2.9898E-005
 Sky Daylight Factors,Intermediate Sky,08/21,ZONE3 BULK STORAGE ZN DAYLIGHTINGCONTROLS,ZONE3 BULK STORAGE,SKYLIGHT_R8C1,ZONE3 BULK STORAGE DAYLT SENSOR 1,3.0313E-005
 Sky Daylight Factors,Overcast Sky,08/21,ZONE3 BULK STORAGE ZN DAYLIGHTINGCONTROLS,ZONE3 BULK STORAGE,SKYLIGHT_R8C1,ZONE3 BULK STORAGE DAYLT SENSOR 1,3.0018E-005
 Sky Daylight Factors,Clear Sky,08/21,ZONE3 BULK STORAGE ZN DAYLIGHTINGCONTROLS,ZONE3 BULK STORAGE,SKYLIGHT_R8C2,ZONE3 BULK STORAGE DAYLT SENSOR 1,2.9635E-005
 Sky Daylight Factors,Clear Turbid Sky,08/21,ZONE3 BULK STORAGE ZN DAYLIGHTINGCONTROLS,ZONE3 BULK STORAGE,SKYLIGHT_R8C2,ZONE3 BULK STORAGE DAYLT SENSOR 1,2.9809E-005
 Sky Daylight Factors,Intermediate Sky,08/21,ZONE3 BULK STORAGE ZN DAYLIGHTINGCONTROLS,ZONE3 BULK STORAGE,SKYLIGHT_R8C2,ZONE3 BULK STORAGE DAYLT SENSOR 1,3.0286E-005
 Sky Daylight Factors,Overcast Sky,08/21,ZONE3 BULK STORAGE ZN DAYLIGHTINGCONTROLS,ZONE3 BULK STORAGE,SKYLIGHT_R8C2,ZONE3 BULK STORAGE DAYLT SENSOR 1,2.9916E-005
 Sky Daylight Factors,Clear Sky,08/21,ZONE3 BULK STORAGE ZN DAYLIGHTINGCONTROLS,ZONE3 BULK STORAGE,SKYLIGHT_R8C3,ZONE3 BULK STORAGE DAYLT SENSOR 1,2.9352E-005
 Sky Daylight Factors,Clear Turbid Sky,08/21,ZONE3 BULK STORAGE ZN DAYLIGHTINGCONTROLS,ZONE3 BULK STORAGE,SKYLIGHT_R8C3,ZONE3 BULK STORAGE DAYLT SENSOR 1,2.9590E-005
 Sky Daylight Factors,Intermediate Sky,08/21,ZONE3 BULK STORAGE ZN DAYLIGHTINGCONTROLS,ZONE3 BULK STORAGE,SKYLIGHT_R8C3,ZONE3 BULK STORAGE DAYLT SENSOR 1,3.0198E-005
 Sky Daylight Factors,Overcast Sky,08/21,ZONE3 BULK STORAGE ZN DAYLIGHTINGCONTROLS,ZONE3 BULK STORAGE,SKYLIGHT_R8C3,ZONE3 BULK STORAGE DAYLT SENSOR 1,2.9690E-005
 Sky Daylight Factors,Clear Sky,08/21,ZONE3 BULK STORAGE ZN DAYLIGHTINGCONTROLS,ZONE3 BULK STORAGE,SKYLIGHT_R8C4,ZONE3 BULK STORAGE DAYLT SENSOR 1,2.9058E-005
 Sky Daylight Factors,Clear Turbid Sky,08/21,ZONE3 BULK STORAGE ZN DAYLIGHTINGCONTROLS,ZONE3 BULK STORAGE,SKYLIGHT_R8C4,ZONE3 BULK STORAGE DAYLT SENSOR 1,2.9359E-005
 Sky Daylight Factors,Intermediate Sky,08/21,ZONE3 BULK STORAGE ZN DAYLIGHTINGCONTROLS,ZONE3 BULK STORAGE,SKYLIGHT_R8C4,ZONE3 BULK STORAGE DAYLT SENSOR 1,3.0099E-005
 Sky Daylight Factors,Overcast Sky,08/21,ZONE3 BULK STORAGE ZN DAYLIGHTINGCONTROLS,ZONE3 BULK STORAGE,SKYLIGHT_R8C4,ZONE3 BULK STORAGE DAYLT SENSOR 1,2.9470E-005
! <Zone Sizing Information>, Zone Name, Load Type, Calc Des Load {W}, User Des Load {W}, Calc Des Air Flow Rate {m3/s}, User Des Air Flow Rate {m3/s}, Design Day Name, Date/Time of Peak, Temperature at Peak {C}, Humidity Ratio at Peak {kgWater/kgDryAir}, Floor Area {m2}, # Occupants, Calc Outdoor Air Flow Rate {m3/s}, Calc DOAS Heat Addition Rate {W}
 Zone Sizing Information, ZONE1 OFFICE ZN, Cooling, 13031.18364, 15637.42037, 0.95459, 1.14550, TAMPA-MACDILL.AFB_FL_USA ANN CLG .4% CONDNS DB=>MWB, 8/21 16:30:00, 33.11000, 1.65349E-002, 236.87965, 4.99751, 8.39937E-002, 0.00000
 Zone Sizing Information, ZONE1 OFFICE ZN, Heating, 9527.06771, 11432.48126, 0.26695, 0.32033, TAMPA-MACDILL.AFB_FL_USA ANN HTG 99.6% CONDNS DB, 1/21 09:00:00, 4.60000, 5.25715E-003, 236.87965, 4.99751, 8.39937E-002, 0.00000
 Zone Sizing Information, ZONE2 FINE STORAGE ZN, Cooling, 42489.09049, 50986.90859, 2.48643, 2.98371, TAMPA-MACDILL.AFB_FL_USA ANN CLG .4% CONDNS DB=>MWB, 8/21 15:00:00, 33.90000, 1.65364E-002, 1393.40969, 0.00000, 0.42471, 0.00000
 Zone Sizing Information, ZONE2 FINE STORAGE ZN, Heating, 17009.37072, 20411.24487, 0.40274, 0.48329, TAMPA-MACDILL.AFB_FL_USA ANN HTG 99.6% CONDNS DB, 1/21 06:40:00, 4.60000, 5.25715E-003, 1393.40969, 0.00000, 0.42471, 0.00000
 Zone Sizing Information, ZONE3 BULK STORAGE ZN, Cooling, 0.00000, 0.00000, 0.00000, 0.97684, TAMPA-MACDILL.AFB_FL_USA ANN CLG .4% CONDNS DB=>MWB, 8/21 14:40:00, 33.90000, 1.65364E-002, 3204.84228, 0.00000, 0.97684, 0.00000
 Zone Sizing Information, ZONE3 BULK STORAGE ZN, Heating, 23715.99209, 28459.19050, 0.48348, 0.97684, TAMPA-MACDILL.AFB_FL_USA ANN HTG 99.6% CONDNS DB, 1/21 24:00:00, 4.60000, 5.25715E-003, 3204.84228, 0.00000, 0.97684, 0.00000
! <System Sizing Information>, System Name, Load Type, Peak Load Kind, User Design Capacity, Calc Des Air Flow Rate [m3/s], User Des Air Flow Rate [m3/s], Design Day Name, Date/Time of Peak
 System Sizing Information, ZONE1 OFFICE ZN HVAC_1, Cooling, Sensible, 16338.28, 1.14550, 1.14550, TAMPA-MACDILL.AFB_FL_USA ANN CLG .4% CONDNS DB=>MWB, 8/21 05:00:00
 System Sizing Information, ZONE1 OFFICE ZN HVAC_1, Heating, Sensible, 12903.00, 0.32033, 0.32033, TAMPA-MACDILL.AFB_FL_USA ANN HTG 99.6% CONDNS DB, 1/21 09:00:00
 System Sizing Information, ZONE2 FINE STORAGE ZN HVAC_2, Cooling, Sensible, 53893.79, 2.98371, 2.98371, TAMPA-MACDILL.AFB_FL_USA ANN CLG .4% CONDNS DB=>MWB, 8/21 05:00:00
 System Sizing Information, ZONE2 FINE STORAGE ZN HVAC_2, Heating, Sensible, 25739.02, 0.48329, 0.48329, TAMPA-MACDILL.AFB_FL_USA ANN HTG 99.6% CONDNS DB, 1/21 06:40:00
! <Component Sizing Information>, Component Type, Component Name, Input Field Description, Value
 Component Sizing Information, AirTerminal:SingleDuct:ConstantVolume:NoReheat, ZONE1 OFFICE ZN HVAC_1 DIFFUSER, Design Size Maximum Air Flow Rate [m3/s], 1.14550
 Component Sizing Information, AirTerminal:SingleDuct:ConstantVolume:NoReheat, ZONE2 FINE STORAGE ZN HVAC_2 DIFFUSER, Design Size Maximum Air Flow Rate [m3/s], 2.98371
 Component Sizing Information, ZoneHVAC:UnitHeater, ZONE3 BULK STORAGE ZN UNIT HEATER, Design Size Maximum Supply Air Flow Rate [m3/s], 0.97684
 Component Sizing Information, Fan:ConstantVolume, ZONE3 BULK STORAGE ZN UNITHEATER FAN, Design Size Maximum Flow Rate [m3/s], 0.97684
 Component Sizing Information, Coil:Heating:Fuel, ZONE3 BULK STORAGE ZN UNITHEATER GAS HTG COIL 164KBTU/HR 0.8 THERMAL EFF, Design Size Nominal Capacity [W], 47916.22273
 Component Sizing Information, AirLoopHVAC, ZONE1 OFFICE ZN HVAC_1, Sum of Air Terminal Maximum Heating Flow Rates [m3/s], 1.14550
 Component Sizing Information, AirLoopHVAC, ZONE1 OFFICE ZN HVAC_1, Sum of Air Terminal Minimum Heating Flow Rates [m3/s], 1.14550
 Component Sizing Information, AirLoopHVAC, ZONE1 OFFICE ZN HVAC_1, Sum of Air Terminal Maximum Flow Rates [m3/s], 1.14550
 Component Sizing Information, AirLoopHVAC, ZONE1 OFFICE ZN HVAC_1, Adjusted Heating Design Air Flow Rate [m3/s], 1.14550
 Component Sizing Information, AirLoopHVAC, ZONE1 OFFICE ZN HVAC_1, Adjusted Cooling Design Air Flow Rate [m3/s], 1.14550
 Component Sizing Information, AirLoopHVAC, ZONE1 OFFICE ZN HVAC_1, Adjusted Main Design Air Flow Rate [m3/s], 1.14550
 Component Sizing Information, AirLoopHVAC, ZONE1 OFFICE ZN HVAC_1, User Heating Air Flow Ratio [], 1.00000
 Component Sizing Information, AirLoopHVAC, ZONE1 OFFICE ZN HVAC_1, Calculated Heating Air Flow Ratio [], 1.00000
 Component Sizing Information, AirLoopHVAC, ZONE2 FINE STORAGE ZN HVAC_2, Sum of Air Terminal Maximum Heating Flow Rates [m3/s], 2.98371
 Component Sizing Information, AirLoopHVAC, ZONE2 FINE STORAGE ZN HVAC_2, Sum of Air Terminal Minimum Heating Flow Rates [m3/s], 2.98371
 Component Sizing Information, AirLoopHVAC, ZONE2 FINE STORAGE ZN HVAC_2, Sum of Air Terminal Maximum Flow Rates [m3/s], 2.98371
 Component Sizing Information, AirLoopHVAC, ZONE2 FINE STORAGE ZN HVAC_2, Adjusted Heating Design Air Flow Rate [m3/s], 2.98371
 Component Sizing Information, AirLoopHVAC, ZONE2 FINE STORAGE ZN HVAC_2, Adjusted Cooling Design Air Flow Rate [m3/s], 2.98371
 Component Sizing Information, AirLoopHVAC, ZONE2 FINE STORAGE ZN HVAC_2, Adjusted Main Design Air Flow Rate [m3/s], 2.98371
 Component Sizing Information, AirLoopHVAC, ZONE2 FINE STORAGE ZN HVAC_2, User Heating Air Flow Ratio [], 1.00000
 Component Sizing Information, AirLoopHVAC, ZONE2 FINE STORAGE ZN HVAC_2, Calculated Heating Air Flow Ratio [], 1.00000
 Component Sizing Information, AirLoopHVAC, ZONE1 OFFICE ZN HVAC_1, Design Supply Air Flow Rate [m3/s], 1.14550
 Component Sizing Information, AirLoopHVAC, ZONE2 FINE STORAGE ZN HVAC_2, Design Supply Air Flow Rate [m3/s], 2.98371
!<Controller:MechanicalVentilation>,Name,Availability Schedule Name,Demand Controlled Ventilation {Yes/No},System Outdoor Air Method,Zone Maximum Outdoor Air Fraction,Number of Zones,Zone Name,DSOA Name,DSZAD Name
 Controller:MechanicalVentilation,CONTROLLER MECHANICAL VENTILATION 1,WAREHOUSE MINOA_MOTORIZEDDAMPER_SCHED,No,ZoneSum,1.00,1,ZONE1 OFFICE ZN,WAREHOUSE OFFICE VENTILATION,
 Controller:MechanicalVentilation,CONTROLLER MECHANICAL VENTILATION 2,WAREHOUSE MINOA_MOTORIZEDDAMPER_SCHED,No,ZoneSum,1.00,1,ZONE2 FINE STORAGE ZN,WAREHOUSE FINE VENTILATION,
 Component Sizing Information, Controller:OutdoorAir, ZONE1 OFFICE ZN HVAC_1 OA SYSTEM CONTROLLER, Maximum Outdoor Air Flow Rate [m3/s], 1.14550
 Component Sizing Information, Controller:OutdoorAir, ZONE1 OFFICE ZN HVAC_1 OA SYSTEM CONTROLLER, Minimum Outdoor Air Flow Rate [m3/s], 8.39937E-002
 Component Sizing Information, AirLoopHVAC:UnitarySystem, ZONE1 OFFICE ZN HVAC_1 UNITARY AC, Design Size Supply Air Flow Rate [m3/s], 1.14550
 Component Sizing Information, AirLoopHVAC:UnitarySystem, ZONE1 OFFICE ZN HVAC_1 UNITARY AC, Design Size Heating Supply Air Flow Rate [m3/s], 1.14550
 Component Sizing Information, AirLoopHVAC:UnitarySystem, ZONE1 OFFICE ZN HVAC_1 UNITARY AC, Design Size Cooling Supply Air Flow Rate [m3/s], 1.14550
 Component Sizing Information, AirLoopHVAC:UnitarySystem, ZONE1 OFFICE ZN HVAC_1 UNITARY AC, User-Specified No Load Supply Air Flow Rate [m3/s], 0.00000
 Component Sizing Information, Coil:Cooling:DX:TwoSpeed, ZONE1 OFFICE ZN HVAC_1 2SPD DX AC CLG COIL 73KBTU/HR 11.0EER, Design Size High Speed Rated Air Flow Rate [m3/s], 1.14550
 Component Sizing Information, Coil:Cooling:DX:TwoSpeed, ZONE1 OFFICE ZN HVAC_1 2SPD DX AC CLG COIL 73KBTU/HR 11.0EER, Design Size High Speed Gross Rated Total Cooling Capacity [W], 21537.32956
 Component Sizing Information, Coil:Cooling:DX:TwoSpeed, ZONE1 OFFICE ZN HVAC_1 2SPD DX AC CLG COIL 73KBTU/HR 11.0EER, Design Size High Speed Rated Sensible Heat Ratio, 0.80070
 Component Sizing Information, Coil:Cooling:DX:TwoSpeed, ZONE1 OFFICE ZN HVAC_1 2SPD DX AC CLG COIL 73KBTU/HR 11.0EER, Design Size Low Speed Rated Air Flow Rate [m3/s], 0.38180
 Component Sizing Information, Coil:Cooling:DX:TwoSpeed, ZONE1 OFFICE ZN HVAC_1 2SPD DX AC CLG COIL 73KBTU/HR 11.0EER, Design Size Low Speed Gross Rated Total Cooling Capacity [W], 7178.39194
 Component Sizing Information, Coil:Cooling:DX:TwoSpeed, ZONE1 OFFICE ZN HVAC_1 2SPD DX AC CLG COIL 73KBTU/HR 11.0EER, Design Size Low Speed Gross Rated Sensible Heat Ratio, 0.80070
 Component Sizing Information, Coil:Cooling:DX:TwoSpeed, ZONE1 OFFICE ZN HVAC_1 2SPD DX AC CLG COIL 73KBTU/HR 11.0EER, User-Specified Low Speed Gross Rated Sensible Heat Ratio, 0.69000
 Component Sizing Information, Fan:OnOff, ZONE1 OFFICE ZN HVAC_1 FAN, Design Size Maximum Flow Rate [m3/s], 1.14550
! <VAV DX Cooling Coil Standard Rating Information>, DX Coil Type, DX Coil Name, Fan Type, Fan Name, Standard Net Cooling Capacity {W}, Standard Net Cooling Capacity {Btu/h}, IEER {Btu/W-h}, COP 100% Capacity {W/W}, COP 75% Capacity {W/W}, COP 50% Capacity {W/W}, COP 25% Capacity {W/W}, EER 100% Capacity {Btu/W-h}, EER 75% Capacity {Btu/W-h}, EER 50% Capacity {Btu/W-h}, EER 25% Capacity {Btu/W-h}, Supply Air Flow 100% {kg/s}, Supply Air Flow 75% {kg/s},Supply Air Flow 50% {kg/s},Supply Air Flow 25% {kg/s}
 VAV DX Cooling Coil Standard Rating Information, Coil:Cooling:DX:TwoSpeed,ZONE1 OFFICE ZN HVAC_1 2SPD DX AC CLG COIL 73KBTU/HR 11.0EER,Fan:VariableVolume,ZONE1 OFFICE ZN HVAC_1 FAN,21503.06,73371.49,14.57,3.80,4.24,4.35,4.35,12.95,14.47,14.83,14.83,1.3232,0.9659,0.6312,0.2862,
 Component Sizing Information, AirLoopHVAC:UnitarySystem, ZONE1 OFFICE ZN HVAC_1 UNITARY AC, Design Size Nominal Cooling Capacity [W], 21537.32956
 Component Sizing Information, AirLoopHVAC:UnitarySystem, ZONE1 OFFICE ZN HVAC_1 UNITARY AC, Design Size Nominal Heating Capacity [W], 41863.89291
 Component Sizing Information, AirLoopHVAC:UnitarySystem, ZONE1 OFFICE ZN HVAC_1 UNITARY AC, Design Size Maximum Supply Air Temperature [C], 50.00000
 Component Sizing Information, AirLoopHVAC:UnitarySystem, ZONE1 OFFICE ZN HVAC_1 UNITARY AC, User-Specified Maximum Supply Air Temperature [C], 80.00000
 Component Sizing Information, AirLoopHVAC:UnitarySystem, ZONE1 OFFICE ZN HVAC_1 UNITARY AC, User-Specified Supplemental Heating Coil Nominal Capacity [W], 0.00000
 Component Sizing Information, AirLoopHVAC:UnitarySystem, ZONE1 OFFICE ZN HVAC_1 UNITARY AC, Fraction of Supply Air Flow That Goes Through the Controlling Zone, 1.00000
 Component Sizing Information, Coil:Heating:Fuel, ZONE1 OFFICE ZN HVAC_1 GAS HTG COIL 146KBTU/HR 0.8 THERMAL EFF, Design Size Nominal Capacity [W], 41863.89291
 Component Sizing Information, Coil:Heating:Electric, ZONE1 OFFICE ZN HVAC_1 NO HEAT, User-Specified Nominal Capacity [W], 0.00000
 Component Sizing Information, Controller:OutdoorAir, ZONE2 FINE STORAGE ZN HVAC_2 OA SYSTEM CONTROLLER, Maximum Outdoor Air Flow Rate [m3/s], 2.98371
 Component Sizing Information, Controller:OutdoorAir, ZONE2 FINE STORAGE ZN HVAC_2 OA SYSTEM CONTROLLER, Minimum Outdoor Air Flow Rate [m3/s], 0.42471
 Component Sizing Information, AirLoopHVAC:UnitarySystem, ZONE2 FINE STORAGE ZN HVAC_2 UNITARY AC, Design Size Supply Air Flow Rate [m3/s], 2.98371
 Component Sizing Information, AirLoopHVAC:UnitarySystem, ZONE2 FINE STORAGE ZN HVAC_2 UNITARY AC, Design Size Heating Supply Air Flow Rate [m3/s], 2.98371
 Component Sizing Information, AirLoopHVAC:UnitarySystem, ZONE2 FINE STORAGE ZN HVAC_2 UNITARY AC, Design Size Cooling Supply Air Flow Rate [m3/s], 2.98371
 Component Sizing Information, AirLoopHVAC:UnitarySystem, ZONE2 FINE STORAGE ZN HVAC_2 UNITARY AC, User-Specified No Load Supply Air Flow Rate [m3/s], 0.00000
 Component Sizing Information, Coil:Cooling:DX:TwoSpeed, ZONE2 FINE STORAGE ZN HVAC_2 2SPD DX AC CLG COIL 246KBTU/HR 9.8EER, Design Size High Speed Rated Air Flow Rate [m3/s], 2.98371
 Component Sizing Information, Coil:Cooling:DX:TwoSpeed, ZONE2 FINE STORAGE ZN HVAC_2 2SPD DX AC CLG COIL 246KBTU/HR 9.8EER, Design Size High Speed Gross Rated Total Cooling Capacity [W], 69078.11752
 Component Sizing Information, Coil:Cooling:DX:TwoSpeed, ZONE2 FINE STORAGE ZN HVAC_2 2SPD DX AC CLG COIL 246KBTU/HR 9.8EER, Design Size High Speed Rated Sensible Heat Ratio, 0.72387
 Component Sizing Information, Coil:Cooling:DX:TwoSpeed, ZONE2 FINE STORAGE ZN HVAC_2 2SPD DX AC CLG COIL 246KBTU/HR 9.8EER, Design Size Low Speed Rated Air Flow Rate [m3/s], 0.99447
 Component Sizing Information, Coil:Cooling:DX:TwoSpeed, ZONE2 FINE STORAGE ZN HVAC_2 2SPD DX AC CLG COIL 246KBTU/HR 9.8EER, Design Size Low Speed Gross Rated Total Cooling Capacity [W], 23023.73657
 Component Sizing Information, Coil:Cooling:DX:TwoSpeed, ZONE2 FINE STORAGE ZN HVAC_2 2SPD DX AC CLG COIL 246KBTU/HR 9.8EER, User-Specified Low Speed Gross Rated Sensible Heat Ratio, 0.69000
 Component Sizing Information, Fan:OnOff, ZONE2 FINE STORAGE ZN HVAC_2 FAN, Design Size Maximum Flow Rate [m3/s], 2.98371
 VAV DX Cooling Coil Standard Rating Information, Coil:Cooling:DX:TwoSpeed,ZONE2 FINE STORAGE ZN HVAC_2 2SPD DX AC CLG COIL 246KBTU/HR 9.8EER,Fan:VariableVolume,ZONE2 FINE STORAGE ZN HVAC_2 FAN,69195.10,236103.48,12.84,3.43,3.77,3.77,3.77,11.71,12.86,12.85,12.85,3.4465,2.6453,1.7179,0.7705,
 Component Sizing Information, AirLoopHVAC:UnitarySystem, ZONE2 FINE STORAGE ZN HVAC_2 UNITARY AC, Design Size Nominal Cooling Capacity [W], 69078.11752
 Component Sizing Information, AirLoopHVAC:UnitarySystem, ZONE2 FINE STORAGE ZN HVAC_2 UNITARY AC, Design Size Nominal Heating Capacity [W], 129803.23119
 Component Sizing Information, AirLoopHVAC:UnitarySystem, ZONE2 FINE STORAGE ZN HVAC_2 UNITARY AC, Design Size Maximum Supply Air Temperature [C], 50.00000
 Component Sizing Information, AirLoopHVAC:UnitarySystem, ZONE2 FINE STORAGE ZN HVAC_2 UNITARY AC, User-Specified Maximum Supply Air Temperature [C], 80.00000
 Component Sizing Information, AirLoopHVAC:UnitarySystem, ZONE2 FINE STORAGE ZN HVAC_2 UNITARY AC, User-Specified Supplemental Heating Coil Nominal Capacity [W], 0.00000
 Component Sizing Information, AirLoopHVAC:UnitarySystem, ZONE2 FINE STORAGE ZN HVAC_2 UNITARY AC, Fraction of Supply Air Flow That Goes Through the Controlling Zone, 1.00000
 Component Sizing Information, Coil:Heating:Fuel, ZONE2 FINE STORAGE ZN HVAC_2 GAS HTG COIL 463KBTU/HR 0.8 THERMAL EFF, Design Size Nominal Capacity [W], 129803.23119
 Component Sizing Information, Coil:Heating:Electric, ZONE2 FINE STORAGE ZN HVAC_2 NO HEAT, User-Specified Nominal Capacity [W], 0.00000
Water Heater Information,WaterHeater:Mixed,20GAL ELECTRICITY WATER HEATER - 21KBTU/HR 1.0 THERM EFF,7.5708E-002,6154.7,1.055,0.5319
 Component Sizing Information, PlantLoop, MAIN SERVICE WATER LOOP, Maximum Loop Flow Rate [m3/s], 8.07469E-006
 Component Sizing Information, PlantLoop, MAIN SERVICE WATER LOOP, Plant Loop Volume [m3], 9.68963E-004
 Component Sizing Information, Pump:VariableSpeed, MAIN SERVICE WATER LOOP WATER MAINS PRESSURE DRIVEN, Design Flow Rate [m3/s], 8.07469E-006
 Component Sizing Information, Pump:VariableSpeed, MAIN SERVICE WATER LOOP WATER MAINS PRESSURE DRIVEN, Design Power Consumption [W], 1.21078E-008
 Component Sizing Information, WaterHeater:Mixed, 20GAL ELECTRICITY WATER HEATER - 21KBTU/HR 1.0 THERM EFF, Use Side Design Flow Rate [m3/s], 8.07469E-006
! <Environment>,Environment Name,Environment Type, Start Date, End Date, Start DayOfWeek, Duration {#days}, Source:Start DayOfWeek,  Use Daylight Saving, Use Holidays, Apply Weekend Holiday Rule,  Use Rain Values, Use Snow Values, Sky Temperature Model
! <Environment:Special Days>, Special Day Name, Special Day Type, Source, Start Date, Duration {#days}
! <Environment:Daylight Saving>, Daylight Saving Indicator, Source, Start Date, End Date
! <Environment:WarmupDays>, NumberofWarmupDays
Environment,RUN PERIOD 1,WeatherFileRunPeriod,01/01/2007,12/31/2007,Monday,365,Use RunPeriod Specified Day,No,No,No,Yes,Yes,Clark and Allen
Environment:Daylight Saving,Yes,InputFile,03/11,11/04
Environment:WarmupDays,  7
! <Tabular Report>,Style,Unit Conversion
Tabular Report,HTML,None
! <Warmup Convergence Information>,Zone Name,Environment Type/Name,Average Warmup Temperature Difference {deltaC},Std Dev Warmup Temperature Difference {deltaC},Max Temperature Pass/Fail Convergence,Min Temperature Pass/Fail Convergence,Average Warmup Load Difference {W},Std Dev Warmup Load Difference {W},Heating Load Pass/Fail Convergence,Cooling Load Pass/Fail Convergence
 Warmup Convergence Information,ZONE1 OFFICE ZN,RunPeriod: RUN PERIOD 1,3.9601422035E-002,6.1295698722E-002,Pass,Pass,0.0000000000,0.0000000000,Pass,Pass
 Warmup Convergence Information,ZONE2 FINE STORAGE ZN,RunPeriod: RUN PERIOD 1,4.0305226614E-002,4.7143157355E-002,Pass,Pass,0.0000000000,0.0000000000,Pass,Pass
 Warmup Convergence Information,ZONE3 BULK STORAGE ZN,RunPeriod: RUN PERIOD 1,5.1032175987E-002,4.3647486219E-002,Pass,Pass,0.0000000000,0.0000000000,Pass,Pass
! <Program Control Information:Threads/Parallel Sims>, Threading Supported,Maximum Number of Threads, Env Set Threads (OMP_NUM_THREADS), EP Env Set Threads (EP_OMP_NUM_THREADS), IDF Set Threads, Number of Threads Used (Interior Radiant Exchange), Number Nominal Surfaces, Number Parallel Sims
Program Control:Threads/Parallel Sims, No,1, N/A, N/A, N/A, N/A, N/A, N/A
End of Data
