Program Version,EnergyPlus, Version 22.2.0-aa78da9668, YMD=2023.04.20 10:14
! <Version>, Version ID
 Version, 22.2
! <Timesteps per Hour>, #TimeSteps, Minutes per TimeStep {minutes}
 Timesteps per Hour,  6, 10
! <System Convergence Limits>, Minimum System TimeStep {minutes}, Max HVAC Iterations, Minimum Plant Iterations, Maximum Plant Iterations
 System Convergence Limits, 1, 20, 2, 8
! <Simulation Control>, Do Zone Sizing, Do System Sizing, Do Plant Sizing, Do Design Days, Do Weather Simulation, Do HVAC Sizing Simulation
 Simulation Control, Yes, Yes, Yes, Yes, No, Yes
! <Performance Precision Tradeoffs>, Use Coil Direct Simulation, Zone Radiant Exchange Algorithm, Override Mode, Number of Timestep In Hour, Force Euler Method, Minimum Number of Warmup Days, Force Suppress All Begin Environment Resets, Minimum System Timestep, MaxZoneTempDiff, MaxAllowedDelTemp
 Performance Precision Tradeoffs, No, ScriptF, Normal, 6, No, 1, No, 1.0, 0.300, 2.0000E-003
! <Output Reporting Tolerances>, Tolerance for Time Heating Setpoint Not Met, Tolerance for Zone Cooling Setpoint Not Met Time
 Output Reporting Tolerances, 0.200, 0.200, 
! <Site:GroundTemperature:BuildingSurface>,Jan{C},Feb{C},Mar{C},Apr{C},May{C},Jun{C},Jul{C},Aug{C},Sep{C},Oct{C},Nov{C},Dec{C}
 Site:GroundTemperature:BuildingSurface,  18.00,  18.00,  18.00,  18.00,  18.00,  18.00,  18.00,  18.00,  18.00,  18.00,  18.00,  18.00
! <Site:GroundTemperature:FCfactorMethod>,Jan{C},Feb{C},Mar{C},Apr{C},May{C},Jun{C},Jul{C},Aug{C},Sep{C},Oct{C},Nov{C},Dec{C}
 Site:GroundTemperature:FCfactorMethod,  -3.10, -17.70, -19.30, -17.60, -15.40, -10.30,   0.70,  10.60,  16.00,  16.90,  14.20,   6.70
! <Site:GroundTemperature:Shallow>,Jan{C},Feb{C},Mar{C},Apr{C},May{C},Jun{C},Jul{C},Aug{C},Sep{C},Oct{C},Nov{C},Dec{C}
 Site:GroundTemperature:Shallow,  13.00,  13.00,  13.00,  13.00,  13.00,  13.00,  13.00,  13.00,  13.00,  13.00,  13.00,  13.00
! <Site:GroundTemperature:Deep>,Jan{C},Feb{C},Mar{C},Apr{C},May{C},Jun{C},Jul{C},Aug{C},Sep{C},Oct{C},Nov{C},Dec{C}
 Site:GroundTemperature:Deep,  16.00,  16.00,  16.00,  16.00,  16.00,  16.00,  16.00,  16.00,  16.00,  16.00,  16.00,  16.00
! <Site:GroundReflectance>,Jan{dimensionless},Feb{dimensionless},Mar{dimensionless},Apr{dimensionless},May{dimensionless},Jun{dimensionless},Jul{dimensionless},Aug{dimensionless},Sep{dimensionless},Oct{dimensionless},Nov{dimensionless},Dec{dimensionless}
 Site:GroundReflectance,  0.20,  0.20,  0.20,  0.20,  0.20,  0.20,  0.20,  0.20,  0.20,  0.20,  0.20,  0.20
! <Site:GroundReflectance:SnowModifier>, Normal, Daylighting {dimensionless}
 Site:GroundReflectance:SnowModifier,   1.000,   1.000
! <Site:GroundReflectance:Snow>,Jan{dimensionless},Feb{dimensionless},Mar{dimensionless},Apr{dimensionless},May{dimensionless},Jun{dimensionless},Jul{dimensionless},Aug{dimensionless},Sep{dimensionless},Oct{dimensionless},Nov{dimensionless},Dec{dimensionless}
 Site:GroundReflectance:Snow,  0.20,  0.20,  0.20,  0.20,  0.20,  0.20,  0.20,  0.20,  0.20,  0.20,  0.20,  0.20
! <Site:GroundReflectance:Snow:Daylighting>,Jan{dimensionless},Feb{dimensionless},Mar{dimensionless},Apr{dimensionless},May{dimensionless},Jun{dimensionless},Jul{dimensionless},Aug{dimensionless},Sep{dimensionless},Oct{dimensionless},Nov{dimensionless},Dec{dimensionless}
 Site:GroundReflectance:Snow:Daylighting,  0.20,  0.20,  0.20,  0.20,  0.20,  0.20,  0.20,  0.20,  0.20,  0.20,  0.20,  0.20
! <Environment:Weather Station>,Wind Sensor Height Above Ground {m},Wind Speed Profile Exponent {},Wind Speed Profile Boundary Layer Thickness {m},Air Temperature Sensor Height Above Ground {m},Wind Speed Modifier Coefficient-Internal,Temperature Modifier Coefficient-Internal
Environment:Weather Station,10.000,0.140,270.000,1.500,1.586,9.750E-003
! <Site:Location>, Location Name, Latitude {N+/S- Deg}, Longitude {E+/W- Deg},  Time Zone Number {GMT+/-}, Elevation {m},  Standard Pressure at Elevation {Pa}, Standard RhoAir at Elevation
Site:Location,Kodiak AK USA customized weather file WMO#=703500,57.75,-152.49,-9.00,34.00,100917,1.1995
! <Site Water Mains Temperature Information>,Calculation Method{},Water Mains Temperature Schedule Name{},Annual Average Outdoor Air Temperature{C},Maximum Difference In Monthly Average Outdoor Air Temperatures{deltaC},Fixed Default Water Mains Temperature{C}
Site Water Mains Temperature Information,Correlation,NA,-1.53,36.20,NA
! <Building Information>, Building Name,North Axis {deg},Terrain,  Loads Convergence Tolerance Value,Temperature Convergence Tolerance Value,  Solar Distribution,Maximum Number of Warmup Days,Minimum Number of Warmup Days
 Building Information,90.1-2010|Warehouse,0.000,Urban,4.00000E-002,0.20000,FullInteriorAndExterior,25,6
! <Inside Convection Algorithm>, Algorithm {Simple | TARP | CeilingDiffuser | AdaptiveConvectionAlgorithm}
Inside Convection Algorithm,TARP
! <Outside Convection Algorithm>, Algorithm {SimpleCombined | TARP | MoWitt | DOE-2 | AdaptiveConvectionAlgorithm}
Outside Convection Algorithm,TARP
! <Sky Radiance Distribution>, Value {Anisotropic}
Sky Radiance Distribution,Anisotropic
! <Zone Air Solution Algorithm>, Value {ThirdOrderBackwardDifference | AnalyticalSolution | EulerMethod}
 Zone Air Solution Algorithm, ThirdOrderBackwardDifference
! <Zone Air Carbon Dioxide Balance Simulation>, Simulation {Yes/No}, Carbon Dioxide Concentration
 Zone Air Carbon Dioxide Balance Simulation, No,N/A
! <Zone Air Generic Contaminant Balance Simulation>, Simulation {Yes/No}, Generic Contaminant Concentration
 Zone Air Generic Contaminant Balance Simulation, No,N/A
! <Zone Air Mass Flow Balance Simulation>, Enforce Mass Balance, Adjust Zone Mixing and Return {AdjustMixingOnly | AdjustReturnOnly | AdjustMixingThenReturn | AdjustReturnThenMixing | None}, Adjust Zone Infiltration {AddInfiltration | AdjustInfiltration | None}, Infiltration Zones {MixingSourceZonesOnly | AllZones}
 Zone Air Mass Flow Balance Simulation, No,N/A,N/A,N/A
! <HVACSystemRootFindingAlgorithm>, Value {RegulaFalsi | Bisection | BisectionThenRegulaFalsi | RegulaFalsiThenBisection}
 HVACSystemRootFindingAlgorithm, RegulaFalsi
! <Environment:Site Atmospheric Variation>,Wind Speed Profile Exponent {},Wind Speed Profile Boundary Layer Thickness {m},Air Temperature Gradient Coefficient {K/m}
Environment:Site Atmospheric Variation,0.220,370.000,6.500000E-003
! <Surface Geometry>,Starting Corner,Vertex Input Direction,Coordinate System,Daylight Reference Point Coordinate System,Rectangular (Simple) Surface Coordinate System
 Surface Geometry,UpperLeftCorner,Counterclockwise,RelativeCoordinateSystem,RelativeCoordinateSystem,RelativeToZoneOrigin
! <Surface Heat Transfer Algorithm>, Value {CTF - ConductionTransferFunction | EMPD - MoisturePenetrationDepthConductionTransferFunction | CondFD - ConductionFiniteDifference | HAMT - CombinedHeatAndMoistureFiniteElement} - Description,Inside Surface Max Temperature Limit{C}, Surface Convection Coefficient Lower Limit {W/m2-K}, Surface Convection Coefficient Upper Limit {W/m2-K}
Surface Heat Transfer Algorithm, CTF - ConductionTransferFunction,200,0.10,1000.0
! <Shading Summary>, Number of Fixed Detached Shades, Number of Building Detached Shades, Number of Attached Shades
 Shading Summary,0,0,0
! <Zone Summary>, Number of Zones, Number of Zone Surfaces, Number of SubSurfaces
 Zone Summary,3,20,2
! <Zone Information>,Zone Name,North Axis {deg},Origin X-Coordinate {m},Origin Y-Coordinate {m},Origin Z-Coordinate {m},Centroid X-Coordinate {m},Centroid Y-Coordinate {m},Centroid Z-Coordinate {m},Type,Zone Multiplier,Zone List Multiplier,Minimum X {m},Maximum X {m},Minimum Y {m},Maximum Y {m},Minimum Z {m},Maximum Z {m},Ceiling Height {m},Volume {m3},Zone Inside Convection Algorithm {Simple-Detailed-CeilingDiffuser-TrombeWall},Zone Outside Convection Algorithm {Simple-Detailed-Tarp-MoWitt-DOE-2-BLAST}, Floor Area {m2},Exterior Gross Wall Area {m2},Exterior Net Wall Area {m2},Exterior Window Area {m2}, Number of Surfaces, Number of SubSurfaces, Number of Shading SubSurfaces,  Part of Total Building Area
 Zone Information, ZONE WAREHOUSE BULK  - STORY GROUND,0.0,-6.71,-4.47,0.00,-2.26,1.67E-015,1.83,1,1,1,-6.71,2.18,-4.47,4.47,0.00,3.66,3.66,290.99,TARP,TARP,79.56,97.78,97.78,0.00,6,0,0,Yes
 Zone Information, ZONE WAREHOUSE FINE  - STORY GROUND,0.0,2.84,-4.47,0.00,4.78,1.76E-015,1.83,1,1,1,2.84,6.71,-4.47,4.47,0.00,3.66,3.66,126.53,TARP,TARP,34.59,61.01,61.01,0.00,6,0,0,Yes
 Zone Information, ZONE WAREHOUSE OFFICE  - STORY GROUND,0.0,2.18,-4.47,0.00,2.51,1.77E-015,1.83,1,1,1,2.18,2.84,-4.47,4.47,0.00,3.66,3.66,21.51,TARP,TARP,5.88,4.81,1.39,3.41,6,2,0,Yes
! <Zone Internal Gains Nominal>,Zone Name, Floor Area {m2},# Occupants,Area per Occupant {m2/person},Occupant per Area {person/m2},Interior Lighting {W/m2},Electric Load {W/m2},Gas Load {W/m2},Other Load {W/m2},Hot Water Eq {W/m2},Steam Equipment {W/m2},Sum Loads per Area {W/m2},Outdoor Controlled Baseboard Heat
 Zone Internal Gains Nominal, ZONE WAREHOUSE BULK  - STORY GROUND,79.56,0.0,N/A,0.000,6.243,2.558,0.000,0.000,0.000,0.000,8.801,No
 Zone Internal Gains Nominal, ZONE WAREHOUSE FINE  - STORY GROUND,34.59,0.0,N/A,0.000,10.226,0.000,0.000,0.000,0.000,0.000,10.226,No
 Zone Internal Gains Nominal, ZONE WAREHOUSE OFFICE  - STORY GROUND,5.88,0.1,47.400,2.110E-002,9.688,8.073,0.000,0.000,0.000,0.000,17.760,No
! <People Internal Gains Nominal>,Name,Schedule Name,Zone Name,Zone Floor Area {m2},# Zone Occupants,Number of People {},People/Floor Area {person/m2},Floor Area per person {m2/person},Fraction Radiant,Fraction Convected,Sensible Fraction Calculation,Activity level,ASHRAE 55 Warnings,Carbon Dioxide Generation Rate,Nominal Minimum Number of People,Nominal Maximum Number of People
 People Internal Gains Nominal, WAREHOUSE OFFICE  - STORY GROUND WAREHOUSE OFFICE PEOPLE,WAREHOUSE BLDG_OCC_SCH,ZONE WAREHOUSE OFFICE  - STORY GROUND,5.88,0.1,0.1,2.110E-002,47.400,0.300,0.700,AutoCalculate,WAREHOUSE OFFICE ACTIVITY SCHEDULE,No,3.8200E-008,0,0
! <Lights Internal Gains Nominal>,Name,Schedule Name,Zone Name,Zone Floor Area {m2},# Zone Occupants,Lighting Level {W},Lights/Floor Area {W/m2},Lights per person {W/person},Fraction Return Air,Fraction Radiant,Fraction Short Wave,Fraction Convected,Fraction Replaceable,End-Use Category,Nominal Minimum Lighting Level {W},Nominal Maximum Lighting Level {W}
 Lights Internal Gains Nominal, WAREHOUSE BULK  - STORY GROUND WAREHOUSE BULK LIGHTS,WAREHOUSE BLDG_LIGHT_STORAGE_SCH,ZONE WAREHOUSE BULK  - STORY GROUND,79.56,0.0,496.676,6.243,N/A,0.000,0.420,0.180,0.400,1.000,General,0.000,496.676
 Lights Internal Gains Nominal, WAREHOUSE FINE  - STORY GROUND WAREHOUSE FINE LIGHTS,WAREHOUSE BLDG_LIGHT_STORAGE_SCH,ZONE WAREHOUSE FINE  - STORY GROUND,34.59,0.0,353.737,10.226,N/A,0.000,0.420,0.180,0.400,1.000,General,0.000,353.737
 Lights Internal Gains Nominal, WAREHOUSE OFFICE  - STORY GROUND WAREHOUSE OFFICE LIGHTS,WAREHOUSE BLDG_LIGHT_OFFICE_SCH_2010,ZONE WAREHOUSE OFFICE  - STORY GROUND,5.88,0.1,56.977,9.688,459.184,0.000,0.370,0.180,0.450,1.000,General,0.000,56.977
! <ElectricEquipment Internal Gains Nominal>,Name,Schedule Name,Zone Name,Zone Floor Area {m2},# Zone Occupants,Equipment Level {W},Equipment/Floor Area {W/m2},Equipment per person {W/person},Fraction Latent,Fraction Radiant,Fraction Lost,Fraction Convected,End-Use SubCategory,Nominal Minimum Equipment Level {W},Nominal Maximum Equipment Level {W}
 ElectricEquipment Internal Gains Nominal, WAREHOUSE BULK  - STORY GROUND WAREHOUSE BULK ELEC EQUIP,WAREHOUSE BLDG EQUIP,ZONE WAREHOUSE BULK  - STORY GROUND,79.56,0.0,203.538,2.558,N/A,0.000,0.000,0.000,1.000,General,0.000,203.538
 ElectricEquipment Internal Gains Nominal, WAREHOUSE OFFICE  - STORY GROUND WAREHOUSE OFFICE ELEC EQUIP,WAREHOUSE OFFICE_PLUG_SCH,ZONE WAREHOUSE OFFICE  - STORY GROUND,5.88,0.1,47.481,8.073,382.653,0.000,0.000,0.000,1.000,General,0.000,47.481
! <Shadowing/Sun Position Calculations Annual Simulations>, Shading Calculation Method, Shading Calculation Update Frequency Method, Shading Calculation Update Frequency {days}, Maximum Figures in Shadow Overlap Calculations {}, Polygon Clipping Algorithm, Pixel Counting Resolution, Sky Diffuse Modeling Algorithm, Output External Shading Calculation Results, Disable Self-Shading Within Shading Zone Groups, Disable Self-Shading From Shading Zone Groups to Other Zones
Shadowing/Sun Position Calculations Annual Simulations,PolygonClipping,Periodic,30,15000,SutherlandHodgman,512,SimpleSkyDiffuseModeling,No,No,No
! <ZoneInfiltration Airflow Stats Nominal>,Name,Schedule Name,Zone Name, Zone Floor Area {m2}, # Zone Occupants,Design Volume Flow Rate {m3/s},Volume Flow Rate/Floor Area {m3/s-m2},Volume Flow Rate/Exterior Surface Area {m3/s-m2},ACH - Air Changes per Hour,Equation A - Constant Term Coefficient {},Equation B - Temperature Term Coefficient {1/C},Equation C - Velocity Term Coefficient {s/m}, Equation D - Velocity Squared Term Coefficient {s2/m2}
 ZoneInfiltration Airflow Stats Nominal, WAREHOUSE BULK  - STORY GROUND INFILTRATION,ALWAYS ON DISCRETE,ZONE WAREHOUSE BULK  - STORY GROUND,79.56,0.0,5.569E-002,7.000E-004,3.140E-004,0.689,0.000,0.000,0.224,0.000
 ZoneInfiltration Airflow Stats Nominal, WAREHOUSE FINE  - STORY GROUND INFILTRATION,ALWAYS ON DISCRETE,ZONE WAREHOUSE FINE  - STORY GROUND,34.59,0.0,3.475E-002,1.004E-003,3.635E-004,0.989,0.000,0.000,0.224,0.000
 ZoneInfiltration Airflow Stats Nominal, WAREHOUSE OFFICE  - STORY GROUND INFILTRATION,ALWAYS ON DISCRETE,ZONE WAREHOUSE OFFICE  - STORY GROUND,5.88,0.1,2.739E-003,4.658E-004,2.562E-004,0.458,0.000,0.000,0.224,0.000
! <AirFlow Model>, Simple
 AirFlow Model, Simple
! <RoomAir Model>, Zone Name, Mixing/Mundt/UCSDDV/UCSDCV/UCSDUFI/UCSDUFE/User Defined
RoomAir Model,ZONE WAREHOUSE BULK  - STORY GROUND,Mixing/Well-Stirred
RoomAir Model,ZONE WAREHOUSE FINE  - STORY GROUND,Mixing/Well-Stirred
RoomAir Model,ZONE WAREHOUSE OFFICE  - STORY GROUND,Mixing/Well-Stirred
! <AirflowNetwork Model:Control>, No Multizone or Distribution/Multizone with Distribution/Multizone without Distribution/Multizone with Distribution only during Fan Operation
AirflowNetwork Model:Control,NoMultizoneOrDistribution
! <Zone Volume Capacitance Multiplier>, Sensible Heat Capacity Multiplier, Moisture Capacity Multiplier, Carbon Dioxide Capacity Multiplier, Generic Contaminant Capacity Multiplier
Zone Volume Capacitance Multiplier,   1.000 ,   1.000,   1.000,   1.000
! <Water Heater Information>,Type,Name,Volume {m3},Maximum Capacity {W},Standard Rated Recovery Efficiency, Standard Rated Energy Factor
Water Heater Information,WaterHeater:Mixed,40GAL ELECTRICITY WATER HEATER - 40KBTU/HR 1.0 THERM EFF,0.1514,11722.8,0.981,0.4610
! <Component Sizing Information>, Component Type, Component Name, Input Field Description, Value
 Component Sizing Information, PlantLoop, MAIN SERVICE WATER LOOP, Initial Maximum Loop Flow Rate [m3/s], 0.00000
 Component Sizing Information, PlantLoop, MAIN SERVICE WATER LOOP, Initial Plant Loop Volume [m3], 0.00000
 Component Sizing Information, Pump:VariableSpeed, MAIN SERVICE WATER LOOP WATER MAINS PRESSURE DRIVEN, Initial Design Flow Rate [m3/s], -99999.00000
 Component Sizing Information, Pump:VariableSpeed, MAIN SERVICE WATER LOOP WATER MAINS PRESSURE DRIVEN, Initial Design Power Consumption [W], 0.00000
 Component Sizing Information, WaterHeater:Mixed, 40GAL ELECTRICITY WATER HEATER - 40KBTU/HR 1.0 THERM EFF, Initial Use Side Design Flow Rate [m3/s], 0.00000
! <Environment>,Environment Name,Environment Type, Start Date, End Date, Start DayOfWeek, Duration {#days}, Source:Start DayOfWeek,  Use Daylight Saving, Use Holidays, Apply Weekend Holiday Rule,  Use Rain Values, Use Snow Values, Sky Temperature Model
! <Environment:Special Days>, Special Day Name, Special Day Type, Source, Start Date, Duration {#days}
! <Environment:Daylight Saving>, Daylight Saving Indicator, Source, Start Date, End Date
! <Environment:WarmupDays>, NumberofWarmupDays
Environment,KODIAK ANN CLG .4% CONDNS DB=>MWB,SizingPeriod:DesignDay,08/21,08/21,SummerDesignDay,1,N/A,N/A,N/A,N/A,N/A,N/A,Clark and Allen
Environment:Daylight Saving,No,SizingPeriod:DesignDay
Environment,KODIAK ANN CLG .4% CONDNS WB=>MDB,SizingPeriod:DesignDay,08/21,08/21,SummerDesignDay,1,N/A,N/A,N/A,N/A,N/A,N/A,Clark and Allen
Environment:Daylight Saving,No,SizingPeriod:DesignDay
Environment,KODIAK ANN HTG 99.6% CONDNS DB,SizingPeriod:DesignDay,01/21,01/21,WinterDesignDay,1,N/A,N/A,N/A,N/A,N/A,N/A,Clark and Allen
Environment:Daylight Saving,No,SizingPeriod:DesignDay
Environment,KODIAK APRIL .4% CONDNS DB=>MCWB,SizingPeriod:DesignDay,04/21,04/21,SummerDesignDay,1,N/A,N/A,N/A,N/A,N/A,N/A,Clark and Allen
Environment:Daylight Saving,No,SizingPeriod:DesignDay
Environment,KODIAK APRIL .4% CONDNS WB=>MCDB,SizingPeriod:DesignDay,04/21,04/21,SummerDesignDay,1,N/A,N/A,N/A,N/A,N/A,N/A,Clark and Allen
Environment:Daylight Saving,No,SizingPeriod:DesignDay
Environment,KODIAK AUGUST .4% CONDNS DB=>MCWB,SizingPeriod:DesignDay,08/21,08/21,SummerDesignDay,1,N/A,N/A,N/A,N/A,N/A,N/A,Clark and Allen
Environment:Daylight Saving,No,SizingPeriod:DesignDay
Environment,KODIAK AUGUST .4% CONDNS WB=>MCDB,SizingPeriod:DesignDay,08/21,08/21,SummerDesignDay,1,N/A,N/A,N/A,N/A,N/A,N/A,Clark and Allen
Environment:Daylight Saving,No,SizingPeriod:DesignDay
Environment,KODIAK DECEMBER .4% CONDNS DB=>MCWB,SizingPeriod:DesignDay,12/21,12/21,SummerDesignDay,1,N/A,N/A,N/A,N/A,N/A,N/A,Clark and Allen
Environment:Daylight Saving,No,SizingPeriod:DesignDay
Environment,KODIAK DECEMBER .4% CONDNS WB=>MCDB,SizingPeriod:DesignDay,12/21,12/21,SummerDesignDay,1,N/A,N/A,N/A,N/A,N/A,N/A,Clark and Allen
Environment:Daylight Saving,No,SizingPeriod:DesignDay
Environment,KODIAK FEBRUARY .4% CONDNS DB=>MCWB,SizingPeriod:DesignDay,02/21,02/21,SummerDesignDay,1,N/A,N/A,N/A,N/A,N/A,N/A,Clark and Allen
Environment:Daylight Saving,No,SizingPeriod:DesignDay
Environment,KODIAK FEBRUARY .4% CONDNS WB=>MCDB,SizingPeriod:DesignDay,02/21,02/21,SummerDesignDay,1,N/A,N/A,N/A,N/A,N/A,N/A,Clark and Allen
Environment:Daylight Saving,No,SizingPeriod:DesignDay
Environment,KODIAK JANUARY .4% CONDNS DB=>MCWB,SizingPeriod:DesignDay,01/21,01/21,SummerDesignDay,1,N/A,N/A,N/A,N/A,N/A,N/A,Clark and Allen
Environment:Daylight Saving,No,SizingPeriod:DesignDay
Environment,KODIAK JANUARY .4% CONDNS WB=>MCDB,SizingPeriod:DesignDay,01/21,01/21,SummerDesignDay,1,N/A,N/A,N/A,N/A,N/A,N/A,Clark and Allen
Environment:Daylight Saving,No,SizingPeriod:DesignDay
Environment,KODIAK JULY .4% CONDNS DB=>MCWB,SizingPeriod:DesignDay,07/21,07/21,SummerDesignDay,1,N/A,N/A,N/A,N/A,N/A,N/A,Clark and Allen
Environment:Daylight Saving,No,SizingPeriod:DesignDay
Environment,KODIAK JULY .4% CONDNS WB=>MCDB,SizingPeriod:DesignDay,07/21,07/21,SummerDesignDay,1,N/A,N/A,N/A,N/A,N/A,N/A,Clark and Allen
Environment:Daylight Saving,No,SizingPeriod:DesignDay
Environment,KODIAK JUNE .4% CONDNS DB=>MCWB,SizingPeriod:DesignDay,06/21,06/21,SummerDesignDay,1,N/A,N/A,N/A,N/A,N/A,N/A,Clark and Allen
Environment:Daylight Saving,No,SizingPeriod:DesignDay
Environment,KODIAK JUNE .4% CONDNS WB=>MCDB,SizingPeriod:DesignDay,06/21,06/21,SummerDesignDay,1,N/A,N/A,N/A,N/A,N/A,N/A,Clark and Allen
Environment:Daylight Saving,No,SizingPeriod:DesignDay
Environment,KODIAK MARCH .4% CONDNS DB=>MCWB,SizingPeriod:DesignDay,03/21,03/21,SummerDesignDay,1,N/A,N/A,N/A,N/A,N/A,N/A,Clark and Allen
Environment:Daylight Saving,No,SizingPeriod:DesignDay
Environment,KODIAK MARCH .4% CONDNS WB=>MCDB,SizingPeriod:DesignDay,03/21,03/21,SummerDesignDay,1,N/A,N/A,N/A,N/A,N/A,N/A,Clark and Allen
Environment:Daylight Saving,No,SizingPeriod:DesignDay
Environment,KODIAK MAY .4% CONDNS DB=>MCWB,SizingPeriod:DesignDay,05/21,05/21,SummerDesignDay,1,N/A,N/A,N/A,N/A,N/A,N/A,Clark and Allen
Environment:Daylight Saving,No,SizingPeriod:DesignDay
Environment,KODIAK MAY .4% CONDNS WB=>MCDB,SizingPeriod:DesignDay,05/21,05/21,SummerDesignDay,1,N/A,N/A,N/A,N/A,N/A,N/A,Clark and Allen
Environment:Daylight Saving,No,SizingPeriod:DesignDay
Environment,KODIAK NOVEMBER .4% CONDNS DB=>MCWB,SizingPeriod:DesignDay,11/21,11/21,SummerDesignDay,1,N/A,N/A,N/A,N/A,N/A,N/A,Clark and Allen
Environment:Daylight Saving,No,SizingPeriod:DesignDay
Environment,KODIAK NOVEMBER .4% CONDNS WB=>MCDB,SizingPeriod:DesignDay,11/21,11/21,SummerDesignDay,1,N/A,N/A,N/A,N/A,N/A,N/A,Clark and Allen
Environment:Daylight Saving,No,SizingPeriod:DesignDay
Environment,KODIAK OCTOBER .4% CONDNS DB=>MCWB,SizingPeriod:DesignDay,10/21,10/21,SummerDesignDay,1,N/A,N/A,N/A,N/A,N/A,N/A,Clark and Allen
Environment:Daylight Saving,No,SizingPeriod:DesignDay
Environment,KODIAK OCTOBER .4% CONDNS WB=>MCDB,SizingPeriod:DesignDay,10/21,10/21,SummerDesignDay,1,N/A,N/A,N/A,N/A,N/A,N/A,Clark and Allen
Environment:Daylight Saving,No,SizingPeriod:DesignDay
Environment,KODIAK SEPTEMBER .4% CONDNS DB=>MCWB,SizingPeriod:DesignDay,09/21,09/21,SummerDesignDay,1,N/A,N/A,N/A,N/A,N/A,N/A,Clark and Allen
Environment:Daylight Saving,No,SizingPeriod:DesignDay
Environment,KODIAK SEPTEMBER .4% CONDNS WB=>MCDB,SizingPeriod:DesignDay,09/21,09/21,SummerDesignDay,1,N/A,N/A,N/A,N/A,N/A,N/A,Clark and Allen
Environment:Daylight Saving,No,SizingPeriod:DesignDay
Environment,KODIAK ANN CLG .4% CONDNS DB=>MWB HVAC Sizing Pass 1,SizingPeriod:DesignDay,08/21,08/21,SummerDesignDay,1,N/A,N/A,N/A,N/A,N/A,N/A,Clark and Allen
Environment:Daylight Saving,No,SizingPeriod:DesignDay
! <Environment:Design Day Data>, Max Dry-Bulb Temp {C}, Temp Range {dC}, Temp Range Ind Type, Hum Ind Type, Hum Ind Value at Max Temp, Hum Ind Units, Pressure {Pa}, Wind Direction {deg CW from N}, Wind Speed {m/s}, Clearness, Rain, Snow
! <Environment:Design Day Misc>,DayOfYear,ASHRAE A Coeff,ASHRAE B Coeff,ASHRAE C Coeff,Solar Constant-Annual Variation,Eq of Time {minutes}, Solar Declination Angle {deg}, Solar Model
Environment:Design Day Data,20.30,6.30,DefaultMultipliers,Wetbulb,14.10,{C},100917,320,5.0,0.00,No,No
Environment:Design Day Misc,233,1106.3,0.2000,0.1216,1.0,-3.33,12.4,ASHRAETau
Environment:WarmupDays,  6
! <Tabular Report>,Style,Unit Conversion
Tabular Report,HTML,None
! <Warmup Convergence Information>,Zone Name,Environment Type/Name,Average Warmup Temperature Difference {deltaC},Std Dev Warmup Temperature Difference {deltaC},Max Temperature Pass/Fail Convergence,Min Temperature Pass/Fail Convergence,Average Warmup Load Difference {W},Std Dev Warmup Load Difference {W},Heating Load Pass/Fail Convergence,Cooling Load Pass/Fail Convergence
 Warmup Convergence Information,ZONE WAREHOUSE BULK  - STORY GROUND,SizingPeriod: KODIAK ANN CLG .4% CONDNS DB=>MWB HVAC Sizing Pass 1,4.9696750832E-002,4.1260410646E-002,Pass,Pass,0.0000000000,0.0000000000,Pass,Pass
 Warmup Convergence Information,ZONE WAREHOUSE FINE  - STORY GROUND,SizingPeriod: KODIAK ANN CLG .4% CONDNS DB=>MWB HVAC Sizing Pass 1,4.7256368896E-002,2.4106705448E-002,Pass,Pass,0.0000000000,0.0000000000,Pass,Pass
 Warmup Convergence Information,ZONE WAREHOUSE OFFICE  - STORY GROUND,SizingPeriod: KODIAK ANN CLG .4% CONDNS DB=>MWB HVAC Sizing Pass 1,6.6495500222E-002,4.3571151789E-002,Pass,Pass,0.0000000000,0.0000000000,Pass,Pass
Environment,KODIAK ANN CLG .4% CONDNS WB=>MDB HVAC Sizing Pass 1,SizingPeriod:DesignDay,08/21,08/21,SummerDesignDay,1,N/A,N/A,N/A,N/A,N/A,N/A,Clark and Allen
Environment:Daylight Saving,No,SizingPeriod:DesignDay
Environment:Design Day Data,18.90,6.30,DefaultMultipliers,Wetbulb,15.00,{C},100917,320,5.0,0.00,No,No
Environment:Design Day Misc,233,1106.3,0.2000,0.1216,1.0,-3.33,12.4,ASHRAETau
Environment:WarmupDays,  6
 Warmup Convergence Information,ZONE WAREHOUSE BULK  - STORY GROUND,SizingPeriod: KODIAK ANN CLG .4% CONDNS WB=>MDB HVAC Sizing Pass 1,4.9738054307E-002,4.1109178126E-002,Pass,Pass,0.0000000000,0.0000000000,Pass,Pass
 Warmup Convergence Information,ZONE WAREHOUSE FINE  - STORY GROUND,SizingPeriod: KODIAK ANN CLG .4% CONDNS WB=>MDB HVAC Sizing Pass 1,4.7438076610E-002,2.4548453797E-002,Pass,Pass,0.0000000000,0.0000000000,Pass,Pass
 Warmup Convergence Information,ZONE WAREHOUSE OFFICE  - STORY GROUND,SizingPeriod: KODIAK ANN CLG .4% CONDNS WB=>MDB HVAC Sizing Pass 1,6.6791350292E-002,4.3749636802E-002,Pass,Pass,0.0000000000,0.0000000000,Pass,Pass
Environment,KODIAK ANN HTG 99.6% CONDNS DB HVAC Sizing Pass 1,SizingPeriod:DesignDay,01/21,01/21,WinterDesignDay,1,N/A,N/A,N/A,N/A,N/A,N/A,Clark and Allen
Environment:Daylight Saving,No,SizingPeriod:DesignDay
Environment:Design Day Data,-12.80,0.00,DefaultMultipliers,Wetbulb,-12.80,{C},100917,290,5.6,0.00,No,No
Environment:Design Day Misc, 21,1229.0,0.1415,5.7310E-002,1.0,-11.15,-20.1,ASHRAEClearSky
Environment:WarmupDays, 11
 Warmup Convergence Information,ZONE WAREHOUSE BULK  - STORY GROUND,SizingPeriod: KODIAK ANN HTG 99.6% CONDNS DB HVAC Sizing Pass 1,1.2607923191E-002,2.7375423574E-002,Pass,Pass,0.0000000000,0.0000000000,Pass,Pass
 Warmup Convergence Information,ZONE WAREHOUSE FINE  - STORY GROUND,SizingPeriod: KODIAK ANN HTG 99.6% CONDNS DB HVAC Sizing Pass 1,4.4783208730E-004,2.4951231619E-004,Pass,Pass,0.0000000000,0.0000000000,Pass,Pass
 Warmup Convergence Information,ZONE WAREHOUSE OFFICE  - STORY GROUND,SizingPeriod: KODIAK ANN HTG 99.6% CONDNS DB HVAC Sizing Pass 1,5.5778989099E-003,1.1074240263E-002,Pass,Pass,0.0000000000,0.0000000000,Pass,Pass
Environment,KODIAK APRIL .4% CONDNS DB=>MCWB HVAC Sizing Pass 1,SizingPeriod:DesignDay,04/21,04/21,SummerDesignDay,1,N/A,N/A,N/A,N/A,N/A,N/A,Clark and Allen
Environment:Daylight Saving,No,SizingPeriod:DesignDay
Environment:Design Day Data,12.90,5.40,DefaultMultipliers,Wetbulb,7.00,{C},100917,320,5.0,0.00,No,No
Environment:Design Day Misc,111,1135.8,0.1796,9.6924E-002,1.0,1.11,11.6,ASHRAETau
Environment:WarmupDays,  8
 Warmup Convergence Information,ZONE WAREHOUSE BULK  - STORY GROUND,SizingPeriod: KODIAK APRIL .4% CONDNS DB=>MCWB HVAC Sizing Pass 1,4.7509203368E-002,3.7837229111E-002,Pass,Pass,0.0000000000,0.0000000000,Pass,Pass
 Warmup Convergence Information,ZONE WAREHOUSE FINE  - STORY GROUND,SizingPeriod: KODIAK APRIL .4% CONDNS DB=>MCWB HVAC Sizing Pass 1,4.4592469120E-002,2.1798400314E-002,Pass,Pass,0.0000000000,0.0000000000,Pass,Pass
 Warmup Convergence Information,ZONE WAREHOUSE OFFICE  - STORY GROUND,SizingPeriod: KODIAK APRIL .4% CONDNS DB=>MCWB HVAC Sizing Pass 1,6.8636894038E-002,4.5198754048E-002,Pass,Pass,0.0000000000,0.0000000000,Pass,Pass
Environment,KODIAK APRIL .4% CONDNS WB=>MCDB HVAC Sizing Pass 1,SizingPeriod:DesignDay,04/21,04/21,SummerDesignDay,1,N/A,N/A,N/A,N/A,N/A,N/A,Clark and Allen
Environment:Daylight Saving,No,SizingPeriod:DesignDay
Environment:Design Day Data,11.40,5.40,DefaultMultipliers,Wetbulb,8.00,{C},100917,320,5.0,0.00,No,No
Environment:Design Day Misc,111,1135.8,0.1796,9.6924E-002,1.0,1.11,11.6,ASHRAETau
Environment:WarmupDays,  9
 Warmup Convergence Information,ZONE WAREHOUSE BULK  - STORY GROUND,SizingPeriod: KODIAK APRIL .4% CONDNS WB=>MCDB HVAC Sizing Pass 1,4.7647454544E-002,3.7937963874E-002,Pass,Pass,0.0000000000,0.0000000000,Pass,Pass
 Warmup Convergence Information,ZONE WAREHOUSE FINE  - STORY GROUND,SizingPeriod: KODIAK APRIL .4% CONDNS WB=>MCDB HVAC Sizing Pass 1,4.4880540660E-002,2.2080668704E-002,Pass,Pass,0.0000000000,0.0000000000,Pass,Pass
 Warmup Convergence Information,ZONE WAREHOUSE OFFICE  - STORY GROUND,SizingPeriod: KODIAK APRIL .4% CONDNS WB=>MCDB HVAC Sizing Pass 1,6.8903410700E-002,4.5372533444E-002,Pass,Pass,0.0000000000,0.0000000000,Pass,Pass
Environment,KODIAK AUGUST .4% CONDNS DB=>MCWB HVAC Sizing Pass 1,SizingPeriod:DesignDay,08/21,08/21,SummerDesignDay,1,N/A,N/A,N/A,N/A,N/A,N/A,Clark and Allen
Environment:Daylight Saving,No,SizingPeriod:DesignDay
Environment:Design Day Data,22.60,6.30,DefaultMultipliers,Wetbulb,16.00,{C},100917,320,5.0,0.00,No,No
Environment:Design Day Misc,233,1106.3,0.2000,0.1216,1.0,-3.33,12.4,ASHRAETau
Environment:WarmupDays,  6
 Warmup Convergence Information,ZONE WAREHOUSE BULK  - STORY GROUND,SizingPeriod: KODIAK AUGUST .4% CONDNS DB=>MCWB HVAC Sizing Pass 1,4.9360042635E-002,4.0803985041E-002,Pass,Pass,0.0000000000,0.0000000000,Pass,Pass
 Warmup Convergence Information,ZONE WAREHOUSE FINE  - STORY GROUND,SizingPeriod: KODIAK AUGUST .4% CONDNS DB=>MCWB HVAC Sizing Pass 1,4.6642251072E-002,2.3245764477E-002,Pass,Pass,0.0000000000,0.0000000000,Pass,Pass
 Warmup Convergence Information,ZONE WAREHOUSE OFFICE  - STORY GROUND,SizingPeriod: KODIAK AUGUST .4% CONDNS DB=>MCWB HVAC Sizing Pass 1,6.5776721569E-002,4.3131113032E-002,Pass,Pass,0.0000000000,0.0000000000,Pass,Pass
Environment,KODIAK AUGUST .4% CONDNS WB=>MCDB HVAC Sizing Pass 1,SizingPeriod:DesignDay,08/21,08/21,SummerDesignDay,1,N/A,N/A,N/A,N/A,N/A,N/A,Clark and Allen
Environment:Daylight Saving,No,SizingPeriod:DesignDay
Environment:Design Day Data,21.40,6.30,DefaultMultipliers,Wetbulb,16.90,{C},100917,320,5.0,0.00,No,No
Environment:Design Day Misc,233,1106.3,0.2000,0.1216,1.0,-3.33,12.4,ASHRAETau
Environment:WarmupDays,  6
 Warmup Convergence Information,ZONE WAREHOUSE BULK  - STORY GROUND,SizingPeriod: KODIAK AUGUST .4% CONDNS WB=>MCDB HVAC Sizing Pass 1,4.9465423512E-002,4.1088903430E-002,Pass,Pass,0.0000000000,0.0000000000,Pass,Pass
 Warmup Convergence Information,ZONE WAREHOUSE FINE  - STORY GROUND,SizingPeriod: KODIAK AUGUST .4% CONDNS WB=>MCDB HVAC Sizing Pass 1,4.6925242880E-002,2.3675518586E-002,Pass,Pass,0.0000000000,0.0000000000,Pass,Pass
 Warmup Convergence Information,ZONE WAREHOUSE OFFICE  - STORY GROUND,SizingPeriod: KODIAK AUGUST .4% CONDNS WB=>MCDB HVAC Sizing Pass 1,6.6071103340E-002,4.3304080051E-002,Pass,Pass,0.0000000000,0.0000000000,Pass,Pass
Environment,KODIAK DECEMBER .4% CONDNS DB=>MCWB HVAC Sizing Pass 1,SizingPeriod:DesignDay,12/21,12/21,SummerDesignDay,1,N/A,N/A,N/A,N/A,N/A,N/A,Clark and Allen
Environment:Daylight Saving,No,SizingPeriod:DesignDay
Environment:Design Day Data,6.90,5.10,DefaultMultipliers,Wetbulb,5.60,{C},100917,320,5.0,0.00,No,No
Environment:Design Day Misc,355,1232.8,0.1424,5.7719E-002,1.0,2.45,-23.5,ASHRAETau
Environment:WarmupDays,  9
 Warmup Convergence Information,ZONE WAREHOUSE BULK  - STORY GROUND,SizingPeriod: KODIAK DECEMBER .4% CONDNS DB=>MCWB HVAC Sizing Pass 1,2.9675893159E-002,3.0712040246E-002,Pass,Pass,0.0000000000,0.0000000000,Pass,Pass
 Warmup Convergence Information,ZONE WAREHOUSE FINE  - STORY GROUND,SizingPeriod: KODIAK DECEMBER .4% CONDNS DB=>MCWB HVAC Sizing Pass 1,2.4159429300E-002,1.3665414783E-002,Pass,Pass,0.0000000000,0.0000000000,Pass,Pass
 Warmup Convergence Information,ZONE WAREHOUSE OFFICE  - STORY GROUND,SizingPeriod: KODIAK DECEMBER .4% CONDNS DB=>MCWB HVAC Sizing Pass 1,3.7621587022E-002,3.5125994914E-002,Pass,Pass,0.0000000000,0.0000000000,Pass,Pass
Environment,KODIAK DECEMBER .4% CONDNS WB=>MCDB HVAC Sizing Pass 1,SizingPeriod:DesignDay,12/21,12/21,SummerDesignDay,1,N/A,N/A,N/A,N/A,N/A,N/A,Clark and Allen
Environment:Daylight Saving,No,SizingPeriod:DesignDay
Environment:Design Day Data,6.50,5.10,DefaultMultipliers,Wetbulb,6.20,{C},100917,320,5.0,0.00,No,No
Environment:Design Day Misc,355,1232.8,0.1424,5.7719E-002,1.0,2.45,-23.5,ASHRAETau
Environment:WarmupDays,  9
 Warmup Convergence Information,ZONE WAREHOUSE BULK  - STORY GROUND,SizingPeriod: KODIAK DECEMBER .4% CONDNS WB=>MCDB HVAC Sizing Pass 1,2.9792468692E-002,3.0672508650E-002,Pass,Pass,0.0000000000,0.0000000000,Pass,Pass
 Warmup Convergence Information,ZONE WAREHOUSE FINE  - STORY GROUND,SizingPeriod: KODIAK DECEMBER .4% CONDNS WB=>MCDB HVAC Sizing Pass 1,2.4249343559E-002,1.3848572249E-002,Pass,Pass,0.0000000000,0.0000000000,Pass,Pass
 Warmup Convergence Information,ZONE WAREHOUSE OFFICE  - STORY GROUND,SizingPeriod: KODIAK DECEMBER .4% CONDNS WB=>MCDB HVAC Sizing Pass 1,3.7768176458E-002,3.5213529528E-002,Pass,Pass,0.0000000000,0.0000000000,Pass,Pass
Environment,KODIAK FEBRUARY .4% CONDNS DB=>MCWB HVAC Sizing Pass 1,SizingPeriod:DesignDay,02/21,02/21,SummerDesignDay,1,N/A,N/A,N/A,N/A,N/A,N/A,Clark and Allen
Environment:Daylight Saving,No,SizingPeriod:DesignDay
Environment:Design Day Data,6.90,4.90,DefaultMultipliers,Wetbulb,4.60,{C},100917,320,5.0,0.00,No,No
Environment:Design Day Misc, 52,1214.6,0.1445,6.0579E-002,1.0,-13.80,-10.8,ASHRAETau
Environment:WarmupDays, 10
 Warmup Convergence Information,ZONE WAREHOUSE BULK  - STORY GROUND,SizingPeriod: KODIAK FEBRUARY .4% CONDNS DB=>MCWB HVAC Sizing Pass 1,3.7023618954E-002,3.4784728475E-002,Pass,Pass,0.0000000000,0.0000000000,Pass,Pass
 Warmup Convergence Information,ZONE WAREHOUSE FINE  - STORY GROUND,SizingPeriod: KODIAK FEBRUARY .4% CONDNS DB=>MCWB HVAC Sizing Pass 1,3.3252284763E-002,2.0155923686E-002,Pass,Pass,0.0000000000,0.0000000000,Pass,Pass
 Warmup Convergence Information,ZONE WAREHOUSE OFFICE  - STORY GROUND,SizingPeriod: KODIAK FEBRUARY .4% CONDNS DB=>MCWB HVAC Sizing Pass 1,5.9763061018E-002,5.1586246271E-002,Pass,Pass,0.0000000000,0.0000000000,Pass,Pass
Environment,KODIAK FEBRUARY .4% CONDNS WB=>MCDB HVAC Sizing Pass 1,SizingPeriod:DesignDay,02/21,02/21,SummerDesignDay,1,N/A,N/A,N/A,N/A,N/A,N/A,Clark and Allen
Environment:Daylight Saving,No,SizingPeriod:DesignDay
Environment:Design Day Data,6.10,4.90,DefaultMultipliers,Wetbulb,5.50,{C},100917,320,5.0,0.00,No,No
Environment:Design Day Misc, 52,1214.6,0.1445,6.0579E-002,1.0,-13.80,-10.8,ASHRAETau
Environment:WarmupDays, 10
 Warmup Convergence Information,ZONE WAREHOUSE BULK  - STORY GROUND,SizingPeriod: KODIAK FEBRUARY .4% CONDNS WB=>MCDB HVAC Sizing Pass 1,3.7371037732E-002,3.4793682717E-002,Pass,Pass,0.0000000000,0.0000000000,Pass,Pass
 Warmup Convergence Information,ZONE WAREHOUSE FINE  - STORY GROUND,SizingPeriod: KODIAK FEBRUARY .4% CONDNS WB=>MCDB HVAC Sizing Pass 1,3.3549861603E-002,2.0228977816E-002,Pass,Pass,0.0000000000,0.0000000000,Pass,Pass
 Warmup Convergence Information,ZONE WAREHOUSE OFFICE  - STORY GROUND,SizingPeriod: KODIAK FEBRUARY .4% CONDNS WB=>MCDB HVAC Sizing Pass 1,6.0069501268E-002,5.1679532248E-002,Pass,Pass,0.0000000000,0.0000000000,Pass,Pass
Environment,KODIAK JANUARY .4% CONDNS DB=>MCWB HVAC Sizing Pass 1,SizingPeriod:DesignDay,01/21,01/21,SummerDesignDay,1,N/A,N/A,N/A,N/A,N/A,N/A,Clark and Allen
Environment:Daylight Saving,No,SizingPeriod:DesignDay
Environment:Design Day Data,6.80,4.70,DefaultMultipliers,Wetbulb,4.00,{C},100917,320,5.0,0.00,No,No
Environment:Design Day Misc, 21,1229.0,0.1415,5.7310E-002,1.0,-11.15,-20.1,ASHRAETau
Environment:WarmupDays,  9
 Warmup Convergence Information,ZONE WAREHOUSE BULK  - STORY GROUND,SizingPeriod: KODIAK JANUARY .4% CONDNS DB=>MCWB HVAC Sizing Pass 1,3.1105487275E-002,3.2246284991E-002,Pass,Pass,0.0000000000,0.0000000000,Pass,Pass
 Warmup Convergence Information,ZONE WAREHOUSE FINE  - STORY GROUND,SizingPeriod: KODIAK JANUARY .4% CONDNS DB=>MCWB HVAC Sizing Pass 1,2.6598175886E-002,1.5508320455E-002,Pass,Pass,0.0000000000,0.0000000000,Pass,Pass
 Warmup Convergence Information,ZONE WAREHOUSE OFFICE  - STORY GROUND,SizingPeriod: KODIAK JANUARY .4% CONDNS DB=>MCWB HVAC Sizing Pass 1,4.6587487343E-002,4.5043540399E-002,Pass,Pass,0.0000000000,0.0000000000,Pass,Pass
Environment,KODIAK JANUARY .4% CONDNS WB=>MCDB HVAC Sizing Pass 1,SizingPeriod:DesignDay,01/21,01/21,SummerDesignDay,1,N/A,N/A,N/A,N/A,N/A,N/A,Clark and Allen
Environment:Daylight Saving,No,SizingPeriod:DesignDay
Environment:Design Day Data,5.70,4.70,DefaultMultipliers,Wetbulb,5.50,{C},100917,320,5.0,0.00,No,No
Environment:Design Day Misc, 21,1229.0,0.1415,5.7310E-002,1.0,-11.15,-20.1,ASHRAETau
Environment:WarmupDays,  9
 Warmup Convergence Information,ZONE WAREHOUSE BULK  - STORY GROUND,SizingPeriod: KODIAK JANUARY .4% CONDNS WB=>MCDB HVAC Sizing Pass 1,3.1661808518E-002,3.2490519515E-002,Pass,Pass,0.0000000000,0.0000000000,Pass,Pass
 Warmup Convergence Information,ZONE WAREHOUSE FINE  - STORY GROUND,SizingPeriod: KODIAK JANUARY .4% CONDNS WB=>MCDB HVAC Sizing Pass 1,2.7104899915E-002,1.5645450152E-002,Pass,Pass,0.0000000000,0.0000000000,Pass,Pass
 Warmup Convergence Information,ZONE WAREHOUSE OFFICE  - STORY GROUND,SizingPeriod: KODIAK JANUARY .4% CONDNS WB=>MCDB HVAC Sizing Pass 1,4.7034142969E-002,4.5145313579E-002,Pass,Pass,0.0000000000,0.0000000000,Pass,Pass
Environment,KODIAK JULY .4% CONDNS DB=>MCWB HVAC Sizing Pass 1,SizingPeriod:DesignDay,07/21,07/21,SummerDesignDay,1,N/A,N/A,N/A,N/A,N/A,N/A,Clark and Allen
Environment:Daylight Saving,No,SizingPeriod:DesignDay
Environment:Design Day Data,24.20,5.50,DefaultMultipliers,Wetbulb,16.20,{C},100917,320,5.0,0.00,No,No
Environment:Design Day Misc,202,1084.4,0.2082,0.1365,1.0,-6.23,20.6,ASHRAETau
Environment:WarmupDays,  6
 Warmup Convergence Information,ZONE WAREHOUSE BULK  - STORY GROUND,SizingPeriod: KODIAK JULY .4% CONDNS DB=>MCWB HVAC Sizing Pass 1,4.7353441307E-002,3.7272890408E-002,Pass,Pass,0.0000000000,0.0000000000,Pass,Pass
 Warmup Convergence Information,ZONE WAREHOUSE FINE  - STORY GROUND,SizingPeriod: KODIAK JULY .4% CONDNS DB=>MCWB HVAC Sizing Pass 1,4.3375538957E-002,1.9510695070E-002,Pass,Pass,0.0000000000,0.0000000000,Pass,Pass
 Warmup Convergence Information,ZONE WAREHOUSE OFFICE  - STORY GROUND,SizingPeriod: KODIAK JULY .4% CONDNS DB=>MCWB HVAC Sizing Pass 1,6.0957883350E-002,3.5051356118E-002,Pass,Pass,0.0000000000,0.0000000000,Pass,Pass
Environment,KODIAK JULY .4% CONDNS WB=>MCDB HVAC Sizing Pass 1,SizingPeriod:DesignDay,07/21,07/21,SummerDesignDay,1,N/A,N/A,N/A,N/A,N/A,N/A,Clark and Allen
Environment:Daylight Saving,No,SizingPeriod:DesignDay
Environment:Design Day Data,22.80,5.50,DefaultMultipliers,Wetbulb,16.60,{C},100917,320,5.0,0.00,No,No
Environment:Design Day Misc,202,1084.4,0.2082,0.1365,1.0,-6.23,20.6,ASHRAETau
Environment:WarmupDays,  6
 Warmup Convergence Information,ZONE WAREHOUSE BULK  - STORY GROUND,SizingPeriod: KODIAK JULY .4% CONDNS WB=>MCDB HVAC Sizing Pass 1,4.7701596051E-002,3.7374022389E-002,Pass,Pass,0.0000000000,0.0000000000,Pass,Pass
 Warmup Convergence Information,ZONE WAREHOUSE FINE  - STORY GROUND,SizingPeriod: KODIAK JULY .4% CONDNS WB=>MCDB HVAC Sizing Pass 1,4.3769897282E-002,1.9711417706E-002,Pass,Pass,0.0000000000,0.0000000000,Pass,Pass
 Warmup Convergence Information,ZONE WAREHOUSE OFFICE  - STORY GROUND,SizingPeriod: KODIAK JULY .4% CONDNS WB=>MCDB HVAC Sizing Pass 1,6.1348682514E-002,3.5196296085E-002,Pass,Pass,0.0000000000,0.0000000000,Pass,Pass
Environment,KODIAK JUNE .4% CONDNS DB=>MCWB HVAC Sizing Pass 1,SizingPeriod:DesignDay,06/21,06/21,SummerDesignDay,1,N/A,N/A,N/A,N/A,N/A,N/A,Clark and Allen
Environment:Daylight Saving,No,SizingPeriod:DesignDay
Environment:Design Day Data,22.30,5.40,DefaultMultipliers,Wetbulb,13.80,{C},100917,320,5.0,0.00,No,No
Environment:Design Day Misc,172,1088.0,0.2039,0.1335,1.0,-1.34,23.4,ASHRAETau
Environment:WarmupDays,  6
 Warmup Convergence Information,ZONE WAREHOUSE BULK  - STORY GROUND,SizingPeriod: KODIAK JUNE .4% CONDNS DB=>MCWB HVAC Sizing Pass 1,4.7142675434E-002,3.6112667312E-002,Pass,Pass,0.0000000000,0.0000000000,Pass,Pass
 Warmup Convergence Information,ZONE WAREHOUSE FINE  - STORY GROUND,SizingPeriod: KODIAK JUNE .4% CONDNS DB=>MCWB HVAC Sizing Pass 1,4.2850955068E-002,1.8530749008E-002,Pass,Pass,0.0000000000,0.0000000000,Pass,Pass
 Warmup Convergence Information,ZONE WAREHOUSE OFFICE  - STORY GROUND,SizingPeriod: KODIAK JUNE .4% CONDNS DB=>MCWB HVAC Sizing Pass 1,6.0040599737E-002,3.3497093741E-002,Pass,Pass,0.0000000000,0.0000000000,Pass,Pass
Environment,KODIAK JUNE .4% CONDNS WB=>MCDB HVAC Sizing Pass 1,SizingPeriod:DesignDay,06/21,06/21,SummerDesignDay,1,N/A,N/A,N/A,N/A,N/A,N/A,Clark and Allen
Environment:Daylight Saving,No,SizingPeriod:DesignDay
Environment:Design Day Data,20.30,5.40,DefaultMultipliers,Wetbulb,14.70,{C},100917,320,5.0,0.00,No,No
Environment:Design Day Misc,172,1088.0,0.2039,0.1335,1.0,-1.34,23.4,ASHRAETau
Environment:WarmupDays,  6
 Warmup Convergence Information,ZONE WAREHOUSE BULK  - STORY GROUND,SizingPeriod: KODIAK JUNE .4% CONDNS WB=>MCDB HVAC Sizing Pass 1,4.7554743854E-002,3.6309695124E-002,Pass,Pass,0.0000000000,0.0000000000,Pass,Pass
 Warmup Convergence Information,ZONE WAREHOUSE FINE  - STORY GROUND,SizingPeriod: KODIAK JUNE .4% CONDNS WB=>MCDB HVAC Sizing Pass 1,4.3324781603E-002,1.8792636249E-002,Pass,Pass,0.0000000000,0.0000000000,Pass,Pass
 Warmup Convergence Information,ZONE WAREHOUSE OFFICE  - STORY GROUND,SizingPeriod: KODIAK JUNE .4% CONDNS WB=>MCDB HVAC Sizing Pass 1,6.0536295418E-002,3.3631783891E-002,Pass,Pass,0.0000000000,0.0000000000,Pass,Pass
Environment,KODIAK MARCH .4% CONDNS DB=>MCWB HVAC Sizing Pass 1,SizingPeriod:DesignDay,03/21,03/21,SummerDesignDay,1,N/A,N/A,N/A,N/A,N/A,N/A,Clark and Allen
Environment:Daylight Saving,No,SizingPeriod:DesignDay
Environment:Design Day Data,8.30,5.50,DefaultMultipliers,Wetbulb,3.90,{C},100917,320,5.0,0.00,No,No
Environment:Design Day Misc, 80,1184.3,0.1559,7.0716E-002,1.0,-7.51,-4.2E-002,ASHRAETau
Environment:WarmupDays,  9
 Warmup Convergence Information,ZONE WAREHOUSE BULK  - STORY GROUND,SizingPeriod: KODIAK MARCH .4% CONDNS DB=>MCWB HVAC Sizing Pass 1,4.4291994742E-002,3.8289058763E-002,Pass,Pass,0.0000000000,0.0000000000,Pass,Pass
 Warmup Convergence Information,ZONE WAREHOUSE FINE  - STORY GROUND,SizingPeriod: KODIAK MARCH .4% CONDNS DB=>MCWB HVAC Sizing Pass 1,4.1351521986E-002,2.2938659605E-002,Pass,Pass,0.0000000000,0.0000000000,Pass,Pass
 Warmup Convergence Information,ZONE WAREHOUSE OFFICE  - STORY GROUND,SizingPeriod: KODIAK MARCH .4% CONDNS DB=>MCWB HVAC Sizing Pass 1,6.8556297227E-002,5.1718325751E-002,Pass,Pass,0.0000000000,0.0000000000,Pass,Pass
Environment,KODIAK MARCH .4% CONDNS WB=>MCDB HVAC Sizing Pass 1,SizingPeriod:DesignDay,03/21,03/21,SummerDesignDay,1,N/A,N/A,N/A,N/A,N/A,N/A,Clark and Allen
Environment:Daylight Saving,No,SizingPeriod:DesignDay
Environment:Design Day Data,6.30,5.50,DefaultMultipliers,Wetbulb,5.20,{C},100917,320,5.0,0.00,No,No
Environment:Design Day Misc, 80,1184.3,0.1559,7.0716E-002,1.0,-7.51,-4.2E-002,ASHRAETau
Environment:WarmupDays,  9
 Warmup Convergence Information,ZONE WAREHOUSE BULK  - STORY GROUND,SizingPeriod: KODIAK MARCH .4% CONDNS WB=>MCDB HVAC Sizing Pass 1,4.4707483005E-002,3.8544504436E-002,Pass,Pass,0.0000000000,0.0000000000,Pass,Pass
 Warmup Convergence Information,ZONE WAREHOUSE FINE  - STORY GROUND,SizingPeriod: KODIAK MARCH .4% CONDNS WB=>MCDB HVAC Sizing Pass 1,4.1935187248E-002,2.3129573701E-002,Pass,Pass,0.0000000000,0.0000000000,Pass,Pass
 Warmup Convergence Information,ZONE WAREHOUSE OFFICE  - STORY GROUND,SizingPeriod: KODIAK MARCH .4% CONDNS WB=>MCDB HVAC Sizing Pass 1,6.9127505072E-002,5.1884097402E-002,Pass,Pass,0.0000000000,0.0000000000,Pass,Pass
Environment,KODIAK MAY .4% CONDNS DB=>MCWB HVAC Sizing Pass 1,SizingPeriod:DesignDay,05/21,05/21,SummerDesignDay,1,N/A,N/A,N/A,N/A,N/A,N/A,Clark and Allen
Environment:Daylight Saving,No,SizingPeriod:DesignDay
Environment:Design Day Data,18.80,5.90,DefaultMultipliers,Wetbulb,10.50,{C},100917,320,5.0,0.00,No,No
Environment:Design Day Misc,141,1102.7,0.1968,0.1213,1.0,3.61,20.0,ASHRAETau
Environment:WarmupDays,  7
 Warmup Convergence Information,ZONE WAREHOUSE BULK  - STORY GROUND,SizingPeriod: KODIAK MAY .4% CONDNS DB=>MCWB HVAC Sizing Pass 1,4.8837228989E-002,3.6766516129E-002,Pass,Pass,0.0000000000,0.0000000000,Pass,Pass
 Warmup Convergence Information,ZONE WAREHOUSE FINE  - STORY GROUND,SizingPeriod: KODIAK MAY .4% CONDNS DB=>MCWB HVAC Sizing Pass 1,4.5292478876E-002,2.0285619709E-002,Pass,Pass,0.0000000000,0.0000000000,Pass,Pass
 Warmup Convergence Information,ZONE WAREHOUSE OFFICE  - STORY GROUND,SizingPeriod: KODIAK MAY .4% CONDNS DB=>MCWB HVAC Sizing Pass 1,6.4702813741E-002,3.7025514199E-002,Pass,Pass,0.0000000000,0.0000000000,Pass,Pass
Environment,KODIAK MAY .4% CONDNS WB=>MCDB HVAC Sizing Pass 1,SizingPeriod:DesignDay,05/21,05/21,SummerDesignDay,1,N/A,N/A,N/A,N/A,N/A,N/A,Clark and Allen
Environment:Daylight Saving,No,SizingPeriod:DesignDay
Environment:Design Day Data,17.00,5.90,DefaultMultipliers,Wetbulb,11.20,{C},100917,320,5.0,0.00,No,No
Environment:Design Day Misc,141,1102.7,0.1968,0.1213,1.0,3.61,20.0,ASHRAETau
Environment:WarmupDays,  7
 Warmup Convergence Information,ZONE WAREHOUSE BULK  - STORY GROUND,SizingPeriod: KODIAK MAY .4% CONDNS WB=>MCDB HVAC Sizing Pass 1,4.9175133888E-002,3.6943212948E-002,Pass,Pass,0.0000000000,0.0000000000,Pass,Pass
 Warmup Convergence Information,ZONE WAREHOUSE FINE  - STORY GROUND,SizingPeriod: KODIAK MAY .4% CONDNS WB=>MCDB HVAC Sizing Pass 1,4.5722411672E-002,2.0546452831E-002,Pass,Pass,0.0000000000,0.0000000000,Pass,Pass
 Warmup Convergence Information,ZONE WAREHOUSE OFFICE  - STORY GROUND,SizingPeriod: KODIAK MAY .4% CONDNS WB=>MCDB HVAC Sizing Pass 1,6.5135377204E-002,3.7174616027E-002,Pass,Pass,0.0000000000,0.0000000000,Pass,Pass
Environment,KODIAK NOVEMBER .4% CONDNS DB=>MCWB HVAC Sizing Pass 1,SizingPeriod:DesignDay,11/21,11/21,SummerDesignDay,1,N/A,N/A,N/A,N/A,N/A,N/A,Clark and Allen
Environment:Daylight Saving,No,SizingPeriod:DesignDay
Environment:Design Day Data,9.40,5.30,DefaultMultipliers,Wetbulb,7.30,{C},100917,320,5.0,0.00,No,No
Environment:Design Day Misc,325,1220.2,0.1488,6.4032E-002,1.0,14.25,-19.7,ASHRAETau
Environment:WarmupDays,  8
 Warmup Convergence Information,ZONE WAREHOUSE BULK  - STORY GROUND,SizingPeriod: KODIAK NOVEMBER .4% CONDNS DB=>MCWB HVAC Sizing Pass 1,3.2219665286E-002,3.2341825344E-002,Pass,Pass,0.0000000000,0.0000000000,Pass,Pass
 Warmup Convergence Information,ZONE WAREHOUSE FINE  - STORY GROUND,SizingPeriod: KODIAK NOVEMBER .4% CONDNS DB=>MCWB HVAC Sizing Pass 1,2.7455271909E-002,1.7166395432E-002,Pass,Pass,0.0000000000,0.0000000000,Pass,Pass
 Warmup Convergence Information,ZONE WAREHOUSE OFFICE  - STORY GROUND,SizingPeriod: KODIAK NOVEMBER .4% CONDNS DB=>MCWB HVAC Sizing Pass 1,4.4780288125E-002,4.1783987664E-002,Pass,Pass,0.0000000000,0.0000000000,Pass,Pass
Environment,KODIAK NOVEMBER .4% CONDNS WB=>MCDB HVAC Sizing Pass 1,SizingPeriod:DesignDay,11/21,11/21,SummerDesignDay,1,N/A,N/A,N/A,N/A,N/A,N/A,Clark and Allen
Environment:Daylight Saving,No,SizingPeriod:DesignDay
Environment:Design Day Data,8.70,5.30,DefaultMultipliers,Wetbulb,8.20,{C},100917,320,5.0,0.00,No,No
Environment:Design Day Misc,325,1220.2,0.1488,6.4032E-002,1.0,14.25,-19.7,ASHRAETau
Environment:WarmupDays,  8
 Warmup Convergence Information,ZONE WAREHOUSE BULK  - STORY GROUND,SizingPeriod: KODIAK NOVEMBER .4% CONDNS WB=>MCDB HVAC Sizing Pass 1,3.2343558010E-002,3.2481965485E-002,Pass,Pass,0.0000000000,0.0000000000,Pass,Pass
 Warmup Convergence Information,ZONE WAREHOUSE FINE  - STORY GROUND,SizingPeriod: KODIAK NOVEMBER .4% CONDNS WB=>MCDB HVAC Sizing Pass 1,2.7482529666E-002,1.7101729496E-002,Pass,Pass,0.0000000000,0.0000000000,Pass,Pass
 Warmup Convergence Information,ZONE WAREHOUSE OFFICE  - STORY GROUND,SizingPeriod: KODIAK NOVEMBER .4% CONDNS WB=>MCDB HVAC Sizing Pass 1,4.4998476888E-002,4.1866454289E-002,Pass,Pass,0.0000000000,0.0000000000,Pass,Pass
Environment,KODIAK OCTOBER .4% CONDNS DB=>MCWB HVAC Sizing Pass 1,SizingPeriod:DesignDay,10/21,10/21,SummerDesignDay,1,N/A,N/A,N/A,N/A,N/A,N/A,Clark and Allen
Environment:Daylight Saving,No,SizingPeriod:DesignDay
Environment:Design Day Data,12.60,6.20,DefaultMultipliers,Wetbulb,9.40,{C},100917,320,5.0,0.00,No,No
Environment:Design Day Misc,294,1191.2,0.1597,7.3069E-002,1.0,15.18,-10.4,ASHRAETau
Environment:WarmupDays,  6
 Warmup Convergence Information,ZONE WAREHOUSE BULK  - STORY GROUND,SizingPeriod: KODIAK OCTOBER .4% CONDNS DB=>MCWB HVAC Sizing Pass 1,4.0652166278E-002,3.7733450161E-002,Pass,Pass,0.0000000000,0.0000000000,Pass,Pass
 Warmup Convergence Information,ZONE WAREHOUSE FINE  - STORY GROUND,SizingPeriod: KODIAK OCTOBER .4% CONDNS DB=>MCWB HVAC Sizing Pass 1,3.7052846610E-002,2.3448464073E-002,Pass,Pass,0.0000000000,0.0000000000,Pass,Pass
 Warmup Convergence Information,ZONE WAREHOUSE OFFICE  - STORY GROUND,SizingPeriod: KODIAK OCTOBER .4% CONDNS DB=>MCWB HVAC Sizing Pass 1,5.9300737232E-002,5.0656472494E-002,Pass,Pass,0.0000000000,0.0000000000,Pass,Pass
Environment,KODIAK OCTOBER .4% CONDNS WB=>MCDB HVAC Sizing Pass 1,SizingPeriod:DesignDay,10/21,10/21,SummerDesignDay,1,N/A,N/A,N/A,N/A,N/A,N/A,Clark and Allen
Environment:Daylight Saving,No,SizingPeriod:DesignDay
Environment:Design Day Data,11.30,6.20,DefaultMultipliers,Wetbulb,10.70,{C},100917,320,5.0,0.00,No,No
Environment:Design Day Misc,294,1191.2,0.1597,7.3069E-002,1.0,15.18,-10.4,ASHRAETau
Environment:WarmupDays,  7
 Warmup Convergence Information,ZONE WAREHOUSE BULK  - STORY GROUND,SizingPeriod: KODIAK OCTOBER .4% CONDNS WB=>MCDB HVAC Sizing Pass 1,4.0676479870E-002,3.7736463127E-002,Pass,Pass,0.0000000000,0.0000000000,Pass,Pass
 Warmup Convergence Information,ZONE WAREHOUSE FINE  - STORY GROUND,SizingPeriod: KODIAK OCTOBER .4% CONDNS WB=>MCDB HVAC Sizing Pass 1,3.7038785852E-002,2.3403988450E-002,Pass,Pass,0.0000000000,0.0000000000,Pass,Pass
 Warmup Convergence Information,ZONE WAREHOUSE OFFICE  - STORY GROUND,SizingPeriod: KODIAK OCTOBER .4% CONDNS WB=>MCDB HVAC Sizing Pass 1,5.9647976223E-002,5.0904971877E-002,Pass,Pass,0.0000000000,0.0000000000,Pass,Pass
Environment,KODIAK SEPTEMBER .4% CONDNS DB=>MCWB HVAC Sizing Pass 1,SizingPeriod:DesignDay,09/21,09/21,SummerDesignDay,1,N/A,N/A,N/A,N/A,N/A,N/A,Clark and Allen
Environment:Daylight Saving,No,SizingPeriod:DesignDay
Environment:Design Day Data,18.00,6.40,DefaultMultipliers,Wetbulb,12.50,{C},100917,320,5.0,0.00,No,No
Environment:Design Day Misc,264,1151.1,0.1777,9.2179E-002,1.0,6.63,1.0,ASHRAETau
Environment:WarmupDays,  6
 Warmup Convergence Information,ZONE WAREHOUSE BULK  - STORY GROUND,SizingPeriod: KODIAK SEPTEMBER .4% CONDNS DB=>MCWB HVAC Sizing Pass 1,4.6250493648E-002,4.0937416831E-002,Pass,Pass,0.0000000000,0.0000000000,Pass,Pass
 Warmup Convergence Information,ZONE WAREHOUSE FINE  - STORY GROUND,SizingPeriod: KODIAK SEPTEMBER .4% CONDNS DB=>MCWB HVAC Sizing Pass 1,4.3818306771E-002,2.6116164406E-002,Pass,Pass,0.0000000000,0.0000000000,Pass,Pass
 Warmup Convergence Information,ZONE WAREHOUSE OFFICE  - STORY GROUND,SizingPeriod: KODIAK SEPTEMBER .4% CONDNS DB=>MCWB HVAC Sizing Pass 1,6.5984812787E-002,4.9894366743E-002,Pass,Pass,0.0000000000,0.0000000000,Pass,Pass
Environment,KODIAK SEPTEMBER .4% CONDNS WB=>MCDB HVAC Sizing Pass 1,SizingPeriod:DesignDay,09/21,09/21,SummerDesignDay,1,N/A,N/A,N/A,N/A,N/A,N/A,Clark and Allen
Environment:Daylight Saving,No,SizingPeriod:DesignDay
Environment:Design Day Data,16.20,6.40,DefaultMultipliers,Wetbulb,13.80,{C},100917,320,5.0,0.00,No,No
Environment:Design Day Misc,264,1151.1,0.1777,9.2179E-002,1.0,6.63,1.0,ASHRAETau
Environment:WarmupDays,  6
 Warmup Convergence Information,ZONE WAREHOUSE BULK  - STORY GROUND,SizingPeriod: KODIAK SEPTEMBER .4% CONDNS WB=>MCDB HVAC Sizing Pass 1,4.6231220159E-002,4.0653037178E-002,Pass,Pass,0.0000000000,0.0000000000,Pass,Pass
 Warmup Convergence Information,ZONE WAREHOUSE FINE  - STORY GROUND,SizingPeriod: KODIAK SEPTEMBER .4% CONDNS WB=>MCDB HVAC Sizing Pass 1,4.3869374006E-002,2.6192617395E-002,Pass,Pass,0.0000000000,0.0000000000,Pass,Pass
 Warmup Convergence Information,ZONE WAREHOUSE OFFICE  - STORY GROUND,SizingPeriod: KODIAK SEPTEMBER .4% CONDNS WB=>MCDB HVAC Sizing Pass 1,6.6387811869E-002,5.0027805598E-002,Pass,Pass,0.0000000000,0.0000000000,Pass,Pass
Environment,KODIAK ANN CLG .4% CONDNS DB=>MWB,SizingPeriod:DesignDay,08/21,08/21,SummerDesignDay,1,N/A,N/A,N/A,N/A,N/A,N/A,Clark and Allen
Environment:Daylight Saving,No,SizingPeriod:DesignDay
Environment:Design Day Data,20.30,6.30,DefaultMultipliers,Wetbulb,14.10,{C},100917,320,5.0,0.00,No,No
Environment:Design Day Misc,233,1106.3,0.2000,0.1216,1.0,-3.33,12.4,ASHRAETau
 Component Sizing Information, PlantLoop, MAIN SERVICE WATER LOOP, Maximum Loop Flow Rate [m3/s], 0.00000
 Component Sizing Information, PlantLoop, MAIN SERVICE WATER LOOP, Plant Loop Volume [m3], 0.00000
 Component Sizing Information, WaterHeater:Mixed, 40GAL ELECTRICITY WATER HEATER - 40KBTU/HR 1.0 THERM EFF, Use Side Design Flow Rate [m3/s], 0.00000
 Component Sizing Information, Pump:VariableSpeed, MAIN SERVICE WATER LOOP WATER MAINS PRESSURE DRIVEN, Design Flow Rate [m3/s], 0.00000
 Component Sizing Information, Pump:VariableSpeed, MAIN SERVICE WATER LOOP WATER MAINS PRESSURE DRIVEN, Design Power Consumption [W], 0.00000
Environment,KODIAK ANN CLG .4% CONDNS WB=>MDB,SizingPeriod:DesignDay,08/21,08/21,SummerDesignDay,1,N/A,N/A,N/A,N/A,N/A,N/A,Clark and Allen
Environment:Daylight Saving,No,SizingPeriod:DesignDay
Environment:Design Day Data,18.90,6.30,DefaultMultipliers,Wetbulb,15.00,{C},100917,320,5.0,0.00,No,No
Environment:Design Day Misc,233,1106.3,0.2000,0.1216,1.0,-3.33,12.4,ASHRAETau
Environment,KODIAK ANN HTG 99.6% CONDNS DB,SizingPeriod:DesignDay,01/21,01/21,WinterDesignDay,1,N/A,N/A,N/A,N/A,N/A,N/A,Clark and Allen
Environment:Daylight Saving,No,SizingPeriod:DesignDay
Environment:Design Day Data,-12.80,0.00,DefaultMultipliers,Wetbulb,-12.80,{C},100917,290,5.6,0.00,No,No
Environment:Design Day Misc, 21,1229.0,0.1415,5.7310E-002,1.0,-11.15,-20.1,ASHRAEClearSky
Environment,KODIAK APRIL .4% CONDNS DB=>MCWB,SizingPeriod:DesignDay,04/21,04/21,SummerDesignDay,1,N/A,N/A,N/A,N/A,N/A,N/A,Clark and Allen
Environment:Daylight Saving,No,SizingPeriod:DesignDay
Environment:Design Day Data,12.90,5.40,DefaultMultipliers,Wetbulb,7.00,{C},100917,320,5.0,0.00,No,No
Environment:Design Day Misc,111,1135.8,0.1796,9.6924E-002,1.0,1.11,11.6,ASHRAETau
Environment,KODIAK APRIL .4% CONDNS WB=>MCDB,SizingPeriod:DesignDay,04/21,04/21,SummerDesignDay,1,N/A,N/A,N/A,N/A,N/A,N/A,Clark and Allen
Environment:Daylight Saving,No,SizingPeriod:DesignDay
Environment:Design Day Data,11.40,5.40,DefaultMultipliers,Wetbulb,8.00,{C},100917,320,5.0,0.00,No,No
Environment:Design Day Misc,111,1135.8,0.1796,9.6924E-002,1.0,1.11,11.6,ASHRAETau
Environment,KODIAK AUGUST .4% CONDNS DB=>MCWB,SizingPeriod:DesignDay,08/21,08/21,SummerDesignDay,1,N/A,N/A,N/A,N/A,N/A,N/A,Clark and Allen
Environment:Daylight Saving,No,SizingPeriod:DesignDay
Environment:Design Day Data,22.60,6.30,DefaultMultipliers,Wetbulb,16.00,{C},100917,320,5.0,0.00,No,No
Environment:Design Day Misc,233,1106.3,0.2000,0.1216,1.0,-3.33,12.4,ASHRAETau
Environment,KODIAK AUGUST .4% CONDNS WB=>MCDB,SizingPeriod:DesignDay,08/21,08/21,SummerDesignDay,1,N/A,N/A,N/A,N/A,N/A,N/A,Clark and Allen
Environment:Daylight Saving,No,SizingPeriod:DesignDay
Environment:Design Day Data,21.40,6.30,DefaultMultipliers,Wetbulb,16.90,{C},100917,320,5.0,0.00,No,No
Environment:Design Day Misc,233,1106.3,0.2000,0.1216,1.0,-3.33,12.4,ASHRAETau
Environment,KODIAK DECEMBER .4% CONDNS DB=>MCWB,SizingPeriod:DesignDay,12/21,12/21,SummerDesignDay,1,N/A,N/A,N/A,N/A,N/A,N/A,Clark and Allen
Environment:Daylight Saving,No,SizingPeriod:DesignDay
Environment:Design Day Data,6.90,5.10,DefaultMultipliers,Wetbulb,5.60,{C},100917,320,5.0,0.00,No,No
Environment:Design Day Misc,355,1232.8,0.1424,5.7719E-002,1.0,2.45,-23.5,ASHRAETau
Environment,KODIAK DECEMBER .4% CONDNS WB=>MCDB,SizingPeriod:DesignDay,12/21,12/21,SummerDesignDay,1,N/A,N/A,N/A,N/A,N/A,N/A,Clark and Allen
Environment:Daylight Saving,No,SizingPeriod:DesignDay
Environment:Design Day Data,6.50,5.10,DefaultMultipliers,Wetbulb,6.20,{C},100917,320,5.0,0.00,No,No
Environment:Design Day Misc,355,1232.8,0.1424,5.7719E-002,1.0,2.45,-23.5,ASHRAETau
Environment,KODIAK FEBRUARY .4% CONDNS DB=>MCWB,SizingPeriod:DesignDay,02/21,02/21,SummerDesignDay,1,N/A,N/A,N/A,N/A,N/A,N/A,Clark and Allen
Environment:Daylight Saving,No,SizingPeriod:DesignDay
Environment:Design Day Data,6.90,4.90,DefaultMultipliers,Wetbulb,4.60,{C},100917,320,5.0,0.00,No,No
Environment:Design Day Misc, 52,1214.6,0.1445,6.0579E-002,1.0,-13.80,-10.8,ASHRAETau
Environment,KODIAK FEBRUARY .4% CONDNS WB=>MCDB,SizingPeriod:DesignDay,02/21,02/21,SummerDesignDay,1,N/A,N/A,N/A,N/A,N/A,N/A,Clark and Allen
Environment:Daylight Saving,No,SizingPeriod:DesignDay
Environment:Design Day Data,6.10,4.90,DefaultMultipliers,Wetbulb,5.50,{C},100917,320,5.0,0.00,No,No
Environment:Design Day Misc, 52,1214.6,0.1445,6.0579E-002,1.0,-13.80,-10.8,ASHRAETau
Environment,KODIAK JANUARY .4% CONDNS DB=>MCWB,SizingPeriod:DesignDay,01/21,01/21,SummerDesignDay,1,N/A,N/A,N/A,N/A,N/A,N/A,Clark and Allen
Environment:Daylight Saving,No,SizingPeriod:DesignDay
Environment:Design Day Data,6.80,4.70,DefaultMultipliers,Wetbulb,4.00,{C},100917,320,5.0,0.00,No,No
Environment:Design Day Misc, 21,1229.0,0.1415,5.7310E-002,1.0,-11.15,-20.1,ASHRAETau
Environment,KODIAK JANUARY .4% CONDNS WB=>MCDB,SizingPeriod:DesignDay,01/21,01/21,SummerDesignDay,1,N/A,N/A,N/A,N/A,N/A,N/A,Clark and Allen
Environment:Daylight Saving,No,SizingPeriod:DesignDay
Environment:Design Day Data,5.70,4.70,DefaultMultipliers,Wetbulb,5.50,{C},100917,320,5.0,0.00,No,No
Environment:Design Day Misc, 21,1229.0,0.1415,5.7310E-002,1.0,-11.15,-20.1,ASHRAETau
Environment,KODIAK JULY .4% CONDNS DB=>MCWB,SizingPeriod:DesignDay,07/21,07/21,SummerDesignDay,1,N/A,N/A,N/A,N/A,N/A,N/A,Clark and Allen
Environment:Daylight Saving,No,SizingPeriod:DesignDay
Environment:Design Day Data,24.20,5.50,DefaultMultipliers,Wetbulb,16.20,{C},100917,320,5.0,0.00,No,No
Environment:Design Day Misc,202,1084.4,0.2082,0.1365,1.0,-6.23,20.6,ASHRAETau
Environment,KODIAK JULY .4% CONDNS WB=>MCDB,SizingPeriod:DesignDay,07/21,07/21,SummerDesignDay,1,N/A,N/A,N/A,N/A,N/A,N/A,Clark and Allen
Environment:Daylight Saving,No,SizingPeriod:DesignDay
Environment:Design Day Data,22.80,5.50,DefaultMultipliers,Wetbulb,16.60,{C},100917,320,5.0,0.00,No,No
Environment:Design Day Misc,202,1084.4,0.2082,0.1365,1.0,-6.23,20.6,ASHRAETau
Environment,KODIAK JUNE .4% CONDNS DB=>MCWB,SizingPeriod:DesignDay,06/21,06/21,SummerDesignDay,1,N/A,N/A,N/A,N/A,N/A,N/A,Clark and Allen
Environment:Daylight Saving,No,SizingPeriod:DesignDay
Environment:Design Day Data,22.30,5.40,DefaultMultipliers,Wetbulb,13.80,{C},100917,320,5.0,0.00,No,No
Environment:Design Day Misc,172,1088.0,0.2039,0.1335,1.0,-1.34,23.4,ASHRAETau
Environment,KODIAK JUNE .4% CONDNS WB=>MCDB,SizingPeriod:DesignDay,06/21,06/21,SummerDesignDay,1,N/A,N/A,N/A,N/A,N/A,N/A,Clark and Allen
Environment:Daylight Saving,No,SizingPeriod:DesignDay
Environment:Design Day Data,20.30,5.40,DefaultMultipliers,Wetbulb,14.70,{C},100917,320,5.0,0.00,No,No
Environment:Design Day Misc,172,1088.0,0.2039,0.1335,1.0,-1.34,23.4,ASHRAETau
Environment,KODIAK MARCH .4% CONDNS DB=>MCWB,SizingPeriod:DesignDay,03/21,03/21,SummerDesignDay,1,N/A,N/A,N/A,N/A,N/A,N/A,Clark and Allen
Environment:Daylight Saving,No,SizingPeriod:DesignDay
Environment:Design Day Data,8.30,5.50,DefaultMultipliers,Wetbulb,3.90,{C},100917,320,5.0,0.00,No,No
Environment:Design Day Misc, 80,1184.3,0.1559,7.0716E-002,1.0,-7.51,-4.2E-002,ASHRAETau
Environment,KODIAK MARCH .4% CONDNS WB=>MCDB,SizingPeriod:DesignDay,03/21,03/21,SummerDesignDay,1,N/A,N/A,N/A,N/A,N/A,N/A,Clark and Allen
Environment:Daylight Saving,No,SizingPeriod:DesignDay
Environment:Design Day Data,6.30,5.50,DefaultMultipliers,Wetbulb,5.20,{C},100917,320,5.0,0.00,No,No
Environment:Design Day Misc, 80,1184.3,0.1559,7.0716E-002,1.0,-7.51,-4.2E-002,ASHRAETau
Environment,KODIAK MAY .4% CONDNS DB=>MCWB,SizingPeriod:DesignDay,05/21,05/21,SummerDesignDay,1,N/A,N/A,N/A,N/A,N/A,N/A,Clark and Allen
Environment:Daylight Saving,No,SizingPeriod:DesignDay
Environment:Design Day Data,18.80,5.90,DefaultMultipliers,Wetbulb,10.50,{C},100917,320,5.0,0.00,No,No
Environment:Design Day Misc,141,1102.7,0.1968,0.1213,1.0,3.61,20.0,ASHRAETau
Environment,KODIAK MAY .4% CONDNS WB=>MCDB,SizingPeriod:DesignDay,05/21,05/21,SummerDesignDay,1,N/A,N/A,N/A,N/A,N/A,N/A,Clark and Allen
Environment:Daylight Saving,No,SizingPeriod:DesignDay
Environment:Design Day Data,17.00,5.90,DefaultMultipliers,Wetbulb,11.20,{C},100917,320,5.0,0.00,No,No
Environment:Design Day Misc,141,1102.7,0.1968,0.1213,1.0,3.61,20.0,ASHRAETau
Environment,KODIAK NOVEMBER .4% CONDNS DB=>MCWB,SizingPeriod:DesignDay,11/21,11/21,SummerDesignDay,1,N/A,N/A,N/A,N/A,N/A,N/A,Clark and Allen
Environment:Daylight Saving,No,SizingPeriod:DesignDay
Environment:Design Day Data,9.40,5.30,DefaultMultipliers,Wetbulb,7.30,{C},100917,320,5.0,0.00,No,No
Environment:Design Day Misc,325,1220.2,0.1488,6.4032E-002,1.0,14.25,-19.7,ASHRAETau
Environment,KODIAK NOVEMBER .4% CONDNS WB=>MCDB,SizingPeriod:DesignDay,11/21,11/21,SummerDesignDay,1,N/A,N/A,N/A,N/A,N/A,N/A,Clark and Allen
Environment:Daylight Saving,No,SizingPeriod:DesignDay
Environment:Design Day Data,8.70,5.30,DefaultMultipliers,Wetbulb,8.20,{C},100917,320,5.0,0.00,No,No
Environment:Design Day Misc,325,1220.2,0.1488,6.4032E-002,1.0,14.25,-19.7,ASHRAETau
Environment,KODIAK OCTOBER .4% CONDNS DB=>MCWB,SizingPeriod:DesignDay,10/21,10/21,SummerDesignDay,1,N/A,N/A,N/A,N/A,N/A,N/A,Clark and Allen
Environment:Daylight Saving,No,SizingPeriod:DesignDay
Environment:Design Day Data,12.60,6.20,DefaultMultipliers,Wetbulb,9.40,{C},100917,320,5.0,0.00,No,No
Environment:Design Day Misc,294,1191.2,0.1597,7.3069E-002,1.0,15.18,-10.4,ASHRAETau
Environment,KODIAK OCTOBER .4% CONDNS WB=>MCDB,SizingPeriod:DesignDay,10/21,10/21,SummerDesignDay,1,N/A,N/A,N/A,N/A,N/A,N/A,Clark and Allen
Environment:Daylight Saving,No,SizingPeriod:DesignDay
Environment:Design Day Data,11.30,6.20,DefaultMultipliers,Wetbulb,10.70,{C},100917,320,5.0,0.00,No,No
Environment:Design Day Misc,294,1191.2,0.1597,7.3069E-002,1.0,15.18,-10.4,ASHRAETau
Environment,KODIAK SEPTEMBER .4% CONDNS DB=>MCWB,SizingPeriod:DesignDay,09/21,09/21,SummerDesignDay,1,N/A,N/A,N/A,N/A,N/A,N/A,Clark and Allen
Environment:Daylight Saving,No,SizingPeriod:DesignDay
Environment:Design Day Data,18.00,6.40,DefaultMultipliers,Wetbulb,12.50,{C},100917,320,5.0,0.00,No,No
Environment:Design Day Misc,264,1151.1,0.1777,9.2179E-002,1.0,6.63,1.0,ASHRAETau
Environment,KODIAK SEPTEMBER .4% CONDNS WB=>MCDB,SizingPeriod:DesignDay,09/21,09/21,SummerDesignDay,1,N/A,N/A,N/A,N/A,N/A,N/A,Clark and Allen
Environment:Daylight Saving,No,SizingPeriod:DesignDay
Environment:Design Day Data,16.20,6.40,DefaultMultipliers,Wetbulb,13.80,{C},100917,320,5.0,0.00,No,No
Environment:Design Day Misc,264,1151.1,0.1777,9.2179E-002,1.0,6.63,1.0,ASHRAETau
Environment,KODIAK ANN CLG .4% CONDNS DB=>MWB HVAC Sizing Pass 1,SizingPeriod:DesignDay,08/21,08/21,SummerDesignDay,1,N/A,N/A,N/A,N/A,N/A,N/A,Clark and Allen
Environment:Daylight Saving,No,SizingPeriod:DesignDay
Environment:Design Day Data,20.30,6.30,DefaultMultipliers,Wetbulb,14.10,{C},100917,320,5.0,0.00,No,No
Environment:Design Day Misc,233,1106.3,0.2000,0.1216,1.0,-3.33,12.4,ASHRAETau
Environment,KODIAK ANN CLG .4% CONDNS WB=>MDB HVAC Sizing Pass 1,SizingPeriod:DesignDay,08/21,08/21,SummerDesignDay,1,N/A,N/A,N/A,N/A,N/A,N/A,Clark and Allen
Environment:Daylight Saving,No,SizingPeriod:DesignDay
Environment:Design Day Data,18.90,6.30,DefaultMultipliers,Wetbulb,15.00,{C},100917,320,5.0,0.00,No,No
Environment:Design Day Misc,233,1106.3,0.2000,0.1216,1.0,-3.33,12.4,ASHRAETau
Environment,KODIAK ANN HTG 99.6% CONDNS DB HVAC Sizing Pass 1,SizingPeriod:DesignDay,01/21,01/21,WinterDesignDay,1,N/A,N/A,N/A,N/A,N/A,N/A,Clark and Allen
Environment:Daylight Saving,No,SizingPeriod:DesignDay
Environment:Design Day Data,-12.80,0.00,DefaultMultipliers,Wetbulb,-12.80,{C},100917,290,5.6,0.00,No,No
Environment:Design Day Misc, 21,1229.0,0.1415,5.7310E-002,1.0,-11.15,-20.1,ASHRAEClearSky
Environment,KODIAK APRIL .4% CONDNS DB=>MCWB HVAC Sizing Pass 1,SizingPeriod:DesignDay,04/21,04/21,SummerDesignDay,1,N/A,N/A,N/A,N/A,N/A,N/A,Clark and Allen
Environment:Daylight Saving,No,SizingPeriod:DesignDay
Environment:Design Day Data,12.90,5.40,DefaultMultipliers,Wetbulb,7.00,{C},100917,320,5.0,0.00,No,No
Environment:Design Day Misc,111,1135.8,0.1796,9.6924E-002,1.0,1.11,11.6,ASHRAETau
Environment,KODIAK APRIL .4% CONDNS WB=>MCDB HVAC Sizing Pass 1,SizingPeriod:DesignDay,04/21,04/21,SummerDesignDay,1,N/A,N/A,N/A,N/A,N/A,N/A,Clark and Allen
Environment:Daylight Saving,No,SizingPeriod:DesignDay
Environment:Design Day Data,11.40,5.40,DefaultMultipliers,Wetbulb,8.00,{C},100917,320,5.0,0.00,No,No
Environment:Design Day Misc,111,1135.8,0.1796,9.6924E-002,1.0,1.11,11.6,ASHRAETau
Environment,KODIAK AUGUST .4% CONDNS DB=>MCWB HVAC Sizing Pass 1,SizingPeriod:DesignDay,08/21,08/21,SummerDesignDay,1,N/A,N/A,N/A,N/A,N/A,N/A,Clark and Allen
Environment:Daylight Saving,No,SizingPeriod:DesignDay
Environment:Design Day Data,22.60,6.30,DefaultMultipliers,Wetbulb,16.00,{C},100917,320,5.0,0.00,No,No
Environment:Design Day Misc,233,1106.3,0.2000,0.1216,1.0,-3.33,12.4,ASHRAETau
Environment,KODIAK AUGUST .4% CONDNS WB=>MCDB HVAC Sizing Pass 1,SizingPeriod:DesignDay,08/21,08/21,SummerDesignDay,1,N/A,N/A,N/A,N/A,N/A,N/A,Clark and Allen
Environment:Daylight Saving,No,SizingPeriod:DesignDay
Environment:Design Day Data,21.40,6.30,DefaultMultipliers,Wetbulb,16.90,{C},100917,320,5.0,0.00,No,No
Environment:Design Day Misc,233,1106.3,0.2000,0.1216,1.0,-3.33,12.4,ASHRAETau
Environment,KODIAK DECEMBER .4% CONDNS DB=>MCWB HVAC Sizing Pass 1,SizingPeriod:DesignDay,12/21,12/21,SummerDesignDay,1,N/A,N/A,N/A,N/A,N/A,N/A,Clark and Allen
Environment:Daylight Saving,No,SizingPeriod:DesignDay
Environment:Design Day Data,6.90,5.10,DefaultMultipliers,Wetbulb,5.60,{C},100917,320,5.0,0.00,No,No
Environment:Design Day Misc,355,1232.8,0.1424,5.7719E-002,1.0,2.45,-23.5,ASHRAETau
Environment,KODIAK DECEMBER .4% CONDNS WB=>MCDB HVAC Sizing Pass 1,SizingPeriod:DesignDay,12/21,12/21,SummerDesignDay,1,N/A,N/A,N/A,N/A,N/A,N/A,Clark and Allen
Environment:Daylight Saving,No,SizingPeriod:DesignDay
Environment:Design Day Data,6.50,5.10,DefaultMultipliers,Wetbulb,6.20,{C},100917,320,5.0,0.00,No,No
Environment:Design Day Misc,355,1232.8,0.1424,5.7719E-002,1.0,2.45,-23.5,ASHRAETau
Environment,KODIAK FEBRUARY .4% CONDNS DB=>MCWB HVAC Sizing Pass 1,SizingPeriod:DesignDay,02/21,02/21,SummerDesignDay,1,N/A,N/A,N/A,N/A,N/A,N/A,Clark and Allen
Environment:Daylight Saving,No,SizingPeriod:DesignDay
Environment:Design Day Data,6.90,4.90,DefaultMultipliers,Wetbulb,4.60,{C},100917,320,5.0,0.00,No,No
Environment:Design Day Misc, 52,1214.6,0.1445,6.0579E-002,1.0,-13.80,-10.8,ASHRAETau
Environment,KODIAK FEBRUARY .4% CONDNS WB=>MCDB HVAC Sizing Pass 1,SizingPeriod:DesignDay,02/21,02/21,SummerDesignDay,1,N/A,N/A,N/A,N/A,N/A,N/A,Clark and Allen
Environment:Daylight Saving,No,SizingPeriod:DesignDay
Environment:Design Day Data,6.10,4.90,DefaultMultipliers,Wetbulb,5.50,{C},100917,320,5.0,0.00,No,No
Environment:Design Day Misc, 52,1214.6,0.1445,6.0579E-002,1.0,-13.80,-10.8,ASHRAETau
Environment,KODIAK JANUARY .4% CONDNS DB=>MCWB HVAC Sizing Pass 1,SizingPeriod:DesignDay,01/21,01/21,SummerDesignDay,1,N/A,N/A,N/A,N/A,N/A,N/A,Clark and Allen
Environment:Daylight Saving,No,SizingPeriod:DesignDay
Environment:Design Day Data,6.80,4.70,DefaultMultipliers,Wetbulb,4.00,{C},100917,320,5.0,0.00,No,No
Environment:Design Day Misc, 21,1229.0,0.1415,5.7310E-002,1.0,-11.15,-20.1,ASHRAETau
Environment,KODIAK JANUARY .4% CONDNS WB=>MCDB HVAC Sizing Pass 1,SizingPeriod:DesignDay,01/21,01/21,SummerDesignDay,1,N/A,N/A,N/A,N/A,N/A,N/A,Clark and Allen
Environment:Daylight Saving,No,SizingPeriod:DesignDay
Environment:Design Day Data,5.70,4.70,DefaultMultipliers,Wetbulb,5.50,{C},100917,320,5.0,0.00,No,No
Environment:Design Day Misc, 21,1229.0,0.1415,5.7310E-002,1.0,-11.15,-20.1,ASHRAETau
Environment,KODIAK JULY .4% CONDNS DB=>MCWB HVAC Sizing Pass 1,SizingPeriod:DesignDay,07/21,07/21,SummerDesignDay,1,N/A,N/A,N/A,N/A,N/A,N/A,Clark and Allen
Environment:Daylight Saving,No,SizingPeriod:DesignDay
Environment:Design Day Data,24.20,5.50,DefaultMultipliers,Wetbulb,16.20,{C},100917,320,5.0,0.00,No,No
Environment:Design Day Misc,202,1084.4,0.2082,0.1365,1.0,-6.23,20.6,ASHRAETau
Environment,KODIAK JULY .4% CONDNS WB=>MCDB HVAC Sizing Pass 1,SizingPeriod:DesignDay,07/21,07/21,SummerDesignDay,1,N/A,N/A,N/A,N/A,N/A,N/A,Clark and Allen
Environment:Daylight Saving,No,SizingPeriod:DesignDay
Environment:Design Day Data,22.80,5.50,DefaultMultipliers,Wetbulb,16.60,{C},100917,320,5.0,0.00,No,No
Environment:Design Day Misc,202,1084.4,0.2082,0.1365,1.0,-6.23,20.6,ASHRAETau
Environment,KODIAK JUNE .4% CONDNS DB=>MCWB HVAC Sizing Pass 1,SizingPeriod:DesignDay,06/21,06/21,SummerDesignDay,1,N/A,N/A,N/A,N/A,N/A,N/A,Clark and Allen
Environment:Daylight Saving,No,SizingPeriod:DesignDay
Environment:Design Day Data,22.30,5.40,DefaultMultipliers,Wetbulb,13.80,{C},100917,320,5.0,0.00,No,No
Environment:Design Day Misc,172,1088.0,0.2039,0.1335,1.0,-1.34,23.4,ASHRAETau
Environment,KODIAK JUNE .4% CONDNS WB=>MCDB HVAC Sizing Pass 1,SizingPeriod:DesignDay,06/21,06/21,SummerDesignDay,1,N/A,N/A,N/A,N/A,N/A,N/A,Clark and Allen
Environment:Daylight Saving,No,SizingPeriod:DesignDay
Environment:Design Day Data,20.30,5.40,DefaultMultipliers,Wetbulb,14.70,{C},100917,320,5.0,0.00,No,No
Environment:Design Day Misc,172,1088.0,0.2039,0.1335,1.0,-1.34,23.4,ASHRAETau
Environment,KODIAK MARCH .4% CONDNS DB=>MCWB HVAC Sizing Pass 1,SizingPeriod:DesignDay,03/21,03/21,SummerDesignDay,1,N/A,N/A,N/A,N/A,N/A,N/A,Clark and Allen
Environment:Daylight Saving,No,SizingPeriod:DesignDay
Environment:Design Day Data,8.30,5.50,DefaultMultipliers,Wetbulb,3.90,{C},100917,320,5.0,0.00,No,No
Environment:Design Day Misc, 80,1184.3,0.1559,7.0716E-002,1.0,-7.51,-4.2E-002,ASHRAETau
Environment,KODIAK MARCH .4% CONDNS WB=>MCDB HVAC Sizing Pass 1,SizingPeriod:DesignDay,03/21,03/21,SummerDesignDay,1,N/A,N/A,N/A,N/A,N/A,N/A,Clark and Allen
Environment:Daylight Saving,No,SizingPeriod:DesignDay
Environment:Design Day Data,6.30,5.50,DefaultMultipliers,Wetbulb,5.20,{C},100917,320,5.0,0.00,No,No
Environment:Design Day Misc, 80,1184.3,0.1559,7.0716E-002,1.0,-7.51,-4.2E-002,ASHRAETau
Environment,KODIAK MAY .4% CONDNS DB=>MCWB HVAC Sizing Pass 1,SizingPeriod:DesignDay,05/21,05/21,SummerDesignDay,1,N/A,N/A,N/A,N/A,N/A,N/A,Clark and Allen
Environment:Daylight Saving,No,SizingPeriod:DesignDay
Environment:Design Day Data,18.80,5.90,DefaultMultipliers,Wetbulb,10.50,{C},100917,320,5.0,0.00,No,No
Environment:Design Day Misc,141,1102.7,0.1968,0.1213,1.0,3.61,20.0,ASHRAETau
Environment,KODIAK MAY .4% CONDNS WB=>MCDB HVAC Sizing Pass 1,SizingPeriod:DesignDay,05/21,05/21,SummerDesignDay,1,N/A,N/A,N/A,N/A,N/A,N/A,Clark and Allen
Environment:Daylight Saving,No,SizingPeriod:DesignDay
Environment:Design Day Data,17.00,5.90,DefaultMultipliers,Wetbulb,11.20,{C},100917,320,5.0,0.00,No,No
Environment:Design Day Misc,141,1102.7,0.1968,0.1213,1.0,3.61,20.0,ASHRAETau
Environment,KODIAK NOVEMBER .4% CONDNS DB=>MCWB HVAC Sizing Pass 1,SizingPeriod:DesignDay,11/21,11/21,SummerDesignDay,1,N/A,N/A,N/A,N/A,N/A,N/A,Clark and Allen
Environment:Daylight Saving,No,SizingPeriod:DesignDay
Environment:Design Day Data,9.40,5.30,DefaultMultipliers,Wetbulb,7.30,{C},100917,320,5.0,0.00,No,No
Environment:Design Day Misc,325,1220.2,0.1488,6.4032E-002,1.0,14.25,-19.7,ASHRAETau
Environment,KODIAK NOVEMBER .4% CONDNS WB=>MCDB HVAC Sizing Pass 1,SizingPeriod:DesignDay,11/21,11/21,SummerDesignDay,1,N/A,N/A,N/A,N/A,N/A,N/A,Clark and Allen
Environment:Daylight Saving,No,SizingPeriod:DesignDay
Environment:Design Day Data,8.70,5.30,DefaultMultipliers,Wetbulb,8.20,{C},100917,320,5.0,0.00,No,No
Environment:Design Day Misc,325,1220.2,0.1488,6.4032E-002,1.0,14.25,-19.7,ASHRAETau
Environment,KODIAK OCTOBER .4% CONDNS DB=>MCWB HVAC Sizing Pass 1,SizingPeriod:DesignDay,10/21,10/21,SummerDesignDay,1,N/A,N/A,N/A,N/A,N/A,N/A,Clark and Allen
Environment:Daylight Saving,No,SizingPeriod:DesignDay
Environment:Design Day Data,12.60,6.20,DefaultMultipliers,Wetbulb,9.40,{C},100917,320,5.0,0.00,No,No
Environment:Design Day Misc,294,1191.2,0.1597,7.3069E-002,1.0,15.18,-10.4,ASHRAETau
Environment,KODIAK OCTOBER .4% CONDNS WB=>MCDB HVAC Sizing Pass 1,SizingPeriod:DesignDay,10/21,10/21,SummerDesignDay,1,N/A,N/A,N/A,N/A,N/A,N/A,Clark and Allen
Environment:Daylight Saving,No,SizingPeriod:DesignDay
Environment:Design Day Data,11.30,6.20,DefaultMultipliers,Wetbulb,10.70,{C},100917,320,5.0,0.00,No,No
Environment:Design Day Misc,294,1191.2,0.1597,7.3069E-002,1.0,15.18,-10.4,ASHRAETau
Environment,KODIAK SEPTEMBER .4% CONDNS DB=>MCWB HVAC Sizing Pass 1,SizingPeriod:DesignDay,09/21,09/21,SummerDesignDay,1,N/A,N/A,N/A,N/A,N/A,N/A,Clark and Allen
Environment:Daylight Saving,No,SizingPeriod:DesignDay
Environment:Design Day Data,18.00,6.40,DefaultMultipliers,Wetbulb,12.50,{C},100917,320,5.0,0.00,No,No
Environment:Design Day Misc,264,1151.1,0.1777,9.2179E-002,1.0,6.63,1.0,ASHRAETau
Environment,KODIAK SEPTEMBER .4% CONDNS WB=>MCDB HVAC Sizing Pass 1,SizingPeriod:DesignDay,09/21,09/21,SummerDesignDay,1,N/A,N/A,N/A,N/A,N/A,N/A,Clark and Allen
Environment:Daylight Saving,No,SizingPeriod:DesignDay
Environment:Design Day Data,16.20,6.40,DefaultMultipliers,Wetbulb,13.80,{C},100917,320,5.0,0.00,No,No
Environment:Design Day Misc,264,1151.1,0.1777,9.2179E-002,1.0,6.63,1.0,ASHRAETau
Environment,KODIAK ANN CLG .4% CONDNS DB=>MWB,SizingPeriod:DesignDay,08/21,08/21,SummerDesignDay,1,N/A,N/A,N/A,N/A,N/A,N/A,Clark and Allen
Environment:Daylight Saving,No,SizingPeriod:DesignDay
Environment:Design Day Data,20.30,6.30,DefaultMultipliers,Wetbulb,14.10,{C},100917,320,5.0,0.00,No,No
Environment:Design Day Misc,233,1106.3,0.2000,0.1216,1.0,-3.33,12.4,ASHRAETau
Environment:WarmupDays,  6
 Warmup Convergence Information,ZONE WAREHOUSE BULK  - STORY GROUND,SizingPeriod: KODIAK ANN CLG .4% CONDNS DB=>MWB,4.9696750832E-002,4.1260410646E-002,Pass,Pass,0.0000000000,0.0000000000,Pass,Pass
 Warmup Convergence Information,ZONE WAREHOUSE FINE  - STORY GROUND,SizingPeriod: KODIAK ANN CLG .4% CONDNS DB=>MWB,4.7256368896E-002,2.4106705448E-002,Pass,Pass,0.0000000000,0.0000000000,Pass,Pass
 Warmup Convergence Information,ZONE WAREHOUSE OFFICE  - STORY GROUND,SizingPeriod: KODIAK ANN CLG .4% CONDNS DB=>MWB,6.6495500222E-002,4.3571151789E-002,Pass,Pass,0.0000000000,0.0000000000,Pass,Pass
Environment,KODIAK ANN CLG .4% CONDNS WB=>MDB,SizingPeriod:DesignDay,08/21,08/21,SummerDesignDay,1,N/A,N/A,N/A,N/A,N/A,N/A,Clark and Allen
Environment:Daylight Saving,No,SizingPeriod:DesignDay
Environment:Design Day Data,18.90,6.30,DefaultMultipliers,Wetbulb,15.00,{C},100917,320,5.0,0.00,No,No
Environment:Design Day Misc,233,1106.3,0.2000,0.1216,1.0,-3.33,12.4,ASHRAETau
Environment:WarmupDays,  6
 Warmup Convergence Information,ZONE WAREHOUSE BULK  - STORY GROUND,SizingPeriod: KODIAK ANN CLG .4% CONDNS WB=>MDB,4.9738054307E-002,4.1109178126E-002,Pass,Pass,0.0000000000,0.0000000000,Pass,Pass
 Warmup Convergence Information,ZONE WAREHOUSE FINE  - STORY GROUND,SizingPeriod: KODIAK ANN CLG .4% CONDNS WB=>MDB,4.7438076610E-002,2.4548453797E-002,Pass,Pass,0.0000000000,0.0000000000,Pass,Pass
 Warmup Convergence Information,ZONE WAREHOUSE OFFICE  - STORY GROUND,SizingPeriod: KODIAK ANN CLG .4% CONDNS WB=>MDB,6.6791350292E-002,4.3749636802E-002,Pass,Pass,0.0000000000,0.0000000000,Pass,Pass
Environment,KODIAK ANN HTG 99.6% CONDNS DB,SizingPeriod:DesignDay,01/21,01/21,WinterDesignDay,1,N/A,N/A,N/A,N/A,N/A,N/A,Clark and Allen
Environment:Daylight Saving,No,SizingPeriod:DesignDay
Environment:Design Day Data,-12.80,0.00,DefaultMultipliers,Wetbulb,-12.80,{C},100917,290,5.6,0.00,No,No
Environment:Design Day Misc, 21,1229.0,0.1415,5.7310E-002,1.0,-11.15,-20.1,ASHRAEClearSky
Environment:WarmupDays, 11
 Warmup Convergence Information,ZONE WAREHOUSE BULK  - STORY GROUND,SizingPeriod: KODIAK ANN HTG 99.6% CONDNS DB,1.2607923191E-002,2.7375423574E-002,Pass,Pass,0.0000000000,0.0000000000,Pass,Pass
 Warmup Convergence Information,ZONE WAREHOUSE FINE  - STORY GROUND,SizingPeriod: KODIAK ANN HTG 99.6% CONDNS DB,4.4783208730E-004,2.4951231619E-004,Pass,Pass,0.0000000000,0.0000000000,Pass,Pass
 Warmup Convergence Information,ZONE WAREHOUSE OFFICE  - STORY GROUND,SizingPeriod: KODIAK ANN HTG 99.6% CONDNS DB,5.5778989099E-003,1.1074240263E-002,Pass,Pass,0.0000000000,0.0000000000,Pass,Pass
Environment,KODIAK APRIL .4% CONDNS DB=>MCWB,SizingPeriod:DesignDay,04/21,04/21,SummerDesignDay,1,N/A,N/A,N/A,N/A,N/A,N/A,Clark and Allen
Environment:Daylight Saving,No,SizingPeriod:DesignDay
Environment:Design Day Data,12.90,5.40,DefaultMultipliers,Wetbulb,7.00,{C},100917,320,5.0,0.00,No,No
Environment:Design Day Misc,111,1135.8,0.1796,9.6924E-002,1.0,1.11,11.6,ASHRAETau
Environment:WarmupDays,  8
 Warmup Convergence Information,ZONE WAREHOUSE BULK  - STORY GROUND,SizingPeriod: KODIAK APRIL .4% CONDNS DB=>MCWB,4.7509203368E-002,3.7837229111E-002,Pass,Pass,0.0000000000,0.0000000000,Pass,Pass
 Warmup Convergence Information,ZONE WAREHOUSE FINE  - STORY GROUND,SizingPeriod: KODIAK APRIL .4% CONDNS DB=>MCWB,4.4592469120E-002,2.1798400314E-002,Pass,Pass,0.0000000000,0.0000000000,Pass,Pass
 Warmup Convergence Information,ZONE WAREHOUSE OFFICE  - STORY GROUND,SizingPeriod: KODIAK APRIL .4% CONDNS DB=>MCWB,6.8636894038E-002,4.5198754048E-002,Pass,Pass,0.0000000000,0.0000000000,Pass,Pass
Environment,KODIAK APRIL .4% CONDNS WB=>MCDB,SizingPeriod:DesignDay,04/21,04/21,SummerDesignDay,1,N/A,N/A,N/A,N/A,N/A,N/A,Clark and Allen
Environment:Daylight Saving,No,SizingPeriod:DesignDay
Environment:Design Day Data,11.40,5.40,DefaultMultipliers,Wetbulb,8.00,{C},100917,320,5.0,0.00,No,No
Environment:Design Day Misc,111,1135.8,0.1796,9.6924E-002,1.0,1.11,11.6,ASHRAETau
Environment:WarmupDays,  9
 Warmup Convergence Information,ZONE WAREHOUSE BULK  - STORY GROUND,SizingPeriod: KODIAK APRIL .4% CONDNS WB=>MCDB,4.7647454544E-002,3.7937963874E-002,Pass,Pass,0.0000000000,0.0000000000,Pass,Pass
 Warmup Convergence Information,ZONE WAREHOUSE FINE  - STORY GROUND,SizingPeriod: KODIAK APRIL .4% CONDNS WB=>MCDB,4.4880540660E-002,2.2080668704E-002,Pass,Pass,0.0000000000,0.0000000000,Pass,Pass
 Warmup Convergence Information,ZONE WAREHOUSE OFFICE  - STORY GROUND,SizingPeriod: KODIAK APRIL .4% CONDNS WB=>MCDB,6.8903410700E-002,4.5372533444E-002,Pass,Pass,0.0000000000,0.0000000000,Pass,Pass
Environment,KODIAK AUGUST .4% CONDNS DB=>MCWB,SizingPeriod:DesignDay,08/21,08/21,SummerDesignDay,1,N/A,N/A,N/A,N/A,N/A,N/A,Clark and Allen
Environment:Daylight Saving,No,SizingPeriod:DesignDay
Environment:Design Day Data,22.60,6.30,DefaultMultipliers,Wetbulb,16.00,{C},100917,320,5.0,0.00,No,No
Environment:Design Day Misc,233,1106.3,0.2000,0.1216,1.0,-3.33,12.4,ASHRAETau
Environment:WarmupDays,  6
 Warmup Convergence Information,ZONE WAREHOUSE BULK  - STORY GROUND,SizingPeriod: KODIAK AUGUST .4% CONDNS DB=>MCWB,4.9360042635E-002,4.0803985041E-002,Pass,Pass,0.0000000000,0.0000000000,Pass,Pass
 Warmup Convergence Information,ZONE WAREHOUSE FINE  - STORY GROUND,SizingPeriod: KODIAK AUGUST .4% CONDNS DB=>MCWB,4.6642251072E-002,2.3245764477E-002,Pass,Pass,0.0000000000,0.0000000000,Pass,Pass
 Warmup Convergence Information,ZONE WAREHOUSE OFFICE  - STORY GROUND,SizingPeriod: KODIAK AUGUST .4% CONDNS DB=>MCWB,6.5776721569E-002,4.3131113032E-002,Pass,Pass,0.0000000000,0.0000000000,Pass,Pass
Environment,KODIAK AUGUST .4% CONDNS WB=>MCDB,SizingPeriod:DesignDay,08/21,08/21,SummerDesignDay,1,N/A,N/A,N/A,N/A,N/A,N/A,Clark and Allen
Environment:Daylight Saving,No,SizingPeriod:DesignDay
Environment:Design Day Data,21.40,6.30,DefaultMultipliers,Wetbulb,16.90,{C},100917,320,5.0,0.00,No,No
Environment:Design Day Misc,233,1106.3,0.2000,0.1216,1.0,-3.33,12.4,ASHRAETau
Environment:WarmupDays,  6
 Warmup Convergence Information,ZONE WAREHOUSE BULK  - STORY GROUND,SizingPeriod: KODIAK AUGUST .4% CONDNS WB=>MCDB,4.9465423512E-002,4.1088903430E-002,Pass,Pass,0.0000000000,0.0000000000,Pass,Pass
 Warmup Convergence Information,ZONE WAREHOUSE FINE  - STORY GROUND,SizingPeriod: KODIAK AUGUST .4% CONDNS WB=>MCDB,4.6925242880E-002,2.3675518586E-002,Pass,Pass,0.0000000000,0.0000000000,Pass,Pass
 Warmup Convergence Information,ZONE WAREHOUSE OFFICE  - STORY GROUND,SizingPeriod: KODIAK AUGUST .4% CONDNS WB=>MCDB,6.6071103340E-002,4.3304080051E-002,Pass,Pass,0.0000000000,0.0000000000,Pass,Pass
Environment,KODIAK DECEMBER .4% CONDNS DB=>MCWB,SizingPeriod:DesignDay,12/21,12/21,SummerDesignDay,1,N/A,N/A,N/A,N/A,N/A,N/A,Clark and Allen
Environment:Daylight Saving,No,SizingPeriod:DesignDay
Environment:Design Day Data,6.90,5.10,DefaultMultipliers,Wetbulb,5.60,{C},100917,320,5.0,0.00,No,No
Environment:Design Day Misc,355,1232.8,0.1424,5.7719E-002,1.0,2.45,-23.5,ASHRAETau
Environment:WarmupDays,  9
[...]
Environment:Daylight Saving,No,SizingPeriod:DesignDay
Environment:Design Day Data,24.20,5.50,DefaultMultipliers,Wetbulb,16.20,{C},100917,320,5.0,0.00,No,No
Environment:Design Day Misc,202,1084.4,0.2082,0.1365,1.0,-6.23,20.6,ASHRAETau
Environment:WarmupDays,  6
 Warmup Convergence Information,ZONE WAREHOUSE BULK  - STORY GROUND,SizingPeriod: KODIAK JULY .4% CONDNS DB=>MCWB,4.7353441307E-002,3.7272890408E-002,Pass,Pass,0.0000000000,0.0000000000,Pass,Pass
 Warmup Convergence Information,ZONE WAREHOUSE FINE  - STORY GROUND,SizingPeriod: KODIAK JULY .4% CONDNS DB=>MCWB,4.3375538957E-002,1.9510695070E-002,Pass,Pass,0.0000000000,0.0000000000,Pass,Pass
 Warmup Convergence Information,ZONE WAREHOUSE OFFICE  - STORY GROUND,SizingPeriod: KODIAK JULY .4% CONDNS DB=>MCWB,6.0957883350E-002,3.5051356118E-002,Pass,Pass,0.0000000000,0.0000000000,Pass,Pass
Environment,KODIAK JULY .4% CONDNS WB=>MCDB,SizingPeriod:DesignDay,07/21,07/21,SummerDesignDay,1,N/A,N/A,N/A,N/A,N/A,N/A,Clark and Allen
Environment:Daylight Saving,No,SizingPeriod:DesignDay
Environment:Design Day Data,22.80,5.50,DefaultMultipliers,Wetbulb,16.60,{C},100917,320,5.0,0.00,No,No
Environment:Design Day Misc,202,1084.4,0.2082,0.1365,1.0,-6.23,20.6,ASHRAETau
Environment:WarmupDays,  6
 Warmup Convergence Information,ZONE WAREHOUSE BULK  - STORY GROUND,SizingPeriod: KODIAK JULY .4% CONDNS WB=>MCDB,4.7701596051E-002,3.7374022389E-002,Pass,Pass,0.0000000000,0.0000000000,Pass,Pass
 Warmup Convergence Information,ZONE WAREHOUSE FINE  - STORY GROUND,SizingPeriod: KODIAK JULY .4% CONDNS WB=>MCDB,4.3769897282E-002,1.9711417706E-002,Pass,Pass,0.0000000000,0.0000000000,Pass,Pass
 Warmup Convergence Information,ZONE WAREHOUSE OFFICE  - STORY GROUND,SizingPeriod: KODIAK JULY .4% CONDNS WB=>MCDB,6.1348682514E-002,3.5196296085E-002,Pass,Pass,0.0000000000,0.0000000000,Pass,Pass
Environment,KODIAK JUNE .4% CONDNS DB=>MCWB,SizingPeriod:DesignDay,06/21,06/21,SummerDesignDay,1,N/A,N/A,N/A,N/A,N/A,N/A,Clark and Allen
Environment:Daylight Saving,No,SizingPeriod:DesignDay
Environment:Design Day Data,22.30,5.40,DefaultMultipliers,Wetbulb,13.80,{C},100917,320,5.0,0.00,No,No
Environment:Design Day Misc,172,1088.0,0.2039,0.1335,1.0,-1.34,23.4,ASHRAETau
Environment:WarmupDays,  6
 Warmup Convergence Information,ZONE WAREHOUSE BULK  - STORY GROUND,SizingPeriod: KODIAK JUNE .4% CONDNS DB=>MCWB,4.7142675434E-002,3.6112667312E-002,Pass,Pass,0.0000000000,0.0000000000,Pass,Pass
 Warmup Convergence Information,ZONE WAREHOUSE FINE  - STORY GROUND,SizingPeriod: KODIAK JUNE .4% CONDNS DB=>MCWB,4.2850955068E-002,1.8530749008E-002,Pass,Pass,0.0000000000,0.0000000000,Pass,Pass
 Warmup Convergence Information,ZONE WAREHOUSE OFFICE  - STORY GROUND,SizingPeriod: KODIAK JUNE .4% CONDNS DB=>MCWB,6.0040599737E-002,3.3497093741E-002,Pass,Pass,0.0000000000,0.0000000000,Pass,Pass
Environment,KODIAK JUNE .4% CONDNS WB=>MCDB,SizingPeriod:DesignDay,06/21,06/21,SummerDesignDay,1,N/A,N/A,N/A,N/A,N/A,N/A,Clark and Allen
Environment:Daylight Saving,No,SizingPeriod:DesignDay
Environment:Design Day Data,20.30,5.40,DefaultMultipliers,Wetbulb,14.70,{C},100917,320,5.0,0.00,No,No
Environment:Design Day Misc,172,1088.0,0.2039,0.1335,1.0,-1.34,23.4,ASHRAETau
Environment:WarmupDays,  6
 Warmup Convergence Information,ZONE WAREHOUSE BULK  - STORY GROUND,SizingPeriod: KODIAK JUNE .4% CONDNS WB=>MCDB,4.7554743854E-002,3.6309695124E-002,Pass,Pass,0.0000000000,0.0000000000,Pass,Pass
 Warmup Convergence Information,ZONE WAREHOUSE FINE  - STORY GROUND,SizingPeriod: KODIAK JUNE .4% CONDNS WB=>MCDB,4.3324781603E-002,1.8792636249E-002,Pass,Pass,0.0000000000,0.0000000000,Pass,Pass
 Warmup Convergence Information,ZONE WAREHOUSE OFFICE  - STORY GROUND,SizingPeriod: KODIAK JUNE .4% CONDNS WB=>MCDB,6.0536295418E-002,3.3631783891E-002,Pass,Pass,0.0000000000,0.0000000000,Pass,Pass
Environment,KODIAK MARCH .4% CONDNS DB=>MCWB,SizingPeriod:DesignDay,03/21,03/21,SummerDesignDay,1,N/A,N/A,N/A,N/A,N/A,N/A,Clark and Allen
Environment:Daylight Saving,No,SizingPeriod:DesignDay
Environment:Design Day Data,8.30,5.50,DefaultMultipliers,Wetbulb,3.90,{C},100917,320,5.0,0.00,No,No
Environment:Design Day Misc, 80,1184.3,0.1559,7.0716E-002,1.0,-7.51,-4.2E-002,ASHRAETau
Environment:WarmupDays,  9
 Warmup Convergence Information,ZONE WAREHOUSE BULK  - STORY GROUND,SizingPeriod: KODIAK MARCH .4% CONDNS DB=>MCWB,4.4291994742E-002,3.8289058763E-002,Pass,Pass,0.0000000000,0.0000000000,Pass,Pass
 Warmup Convergence Information,ZONE WAREHOUSE FINE  - STORY GROUND,SizingPeriod: KODIAK MARCH .4% CONDNS DB=>MCWB,4.1351521986E-002,2.2938659605E-002,Pass,Pass,0.0000000000,0.0000000000,Pass,Pass
 Warmup Convergence Information,ZONE WAREHOUSE OFFICE  - STORY GROUND,SizingPeriod: KODIAK MARCH .4% CONDNS DB=>MCWB,6.8556297227E-002,5.1718325751E-002,Pass,Pass,0.0000000000,0.0000000000,Pass,Pass
Environment,KODIAK MARCH .4% CONDNS WB=>MCDB,SizingPeriod:DesignDay,03/21,03/21,SummerDesignDay,1,N/A,N/A,N/A,N/A,N/A,N/A,Clark and Allen
Environment:Daylight Saving,No,SizingPeriod:DesignDay
Environment:Design Day Data,6.30,5.50,DefaultMultipliers,Wetbulb,5.20,{C},100917,320,5.0,0.00,No,No
Environment:Design Day Misc, 80,1184.3,0.1559,7.0716E-002,1.0,-7.51,-4.2E-002,ASHRAETau
Environment:WarmupDays,  9
 Warmup Convergence Information,ZONE WAREHOUSE BULK  - STORY GROUND,SizingPeriod: KODIAK MARCH .4% CONDNS WB=>MCDB,4.4707483005E-002,3.8544504436E-002,Pass,Pass,0.0000000000,0.0000000000,Pass,Pass
 Warmup Convergence Information,ZONE WAREHOUSE FINE  - STORY GROUND,SizingPeriod: KODIAK MARCH .4% CONDNS WB=>MCDB,4.1935187248E-002,2.3129573701E-002,Pass,Pass,0.0000000000,0.0000000000,Pass,Pass
 Warmup Convergence Information,ZONE WAREHOUSE OFFICE  - STORY GROUND,SizingPeriod: KODIAK MARCH .4% CONDNS WB=>MCDB,6.9127505072E-002,5.1884097402E-002,Pass,Pass,0.0000000000,0.0000000000,Pass,Pass
Environment,KODIAK MAY .4% CONDNS DB=>MCWB,SizingPeriod:DesignDay,05/21,05/21,SummerDesignDay,1,N/A,N/A,N/A,N/A,N/A,N/A,Clark and Allen
Environment:Daylight Saving,No,SizingPeriod:DesignDay
Environment:Design Day Data,18.80,5.90,DefaultMultipliers,Wetbulb,10.50,{C},100917,320,5.0,0.00,No,No
Environment:Design Day Misc,141,1102.7,0.1968,0.1213,1.0,3.61,20.0,ASHRAETau
Environment:WarmupDays,  7
 Warmup Convergence Information,ZONE WAREHOUSE BULK  - STORY GROUND,SizingPeriod: KODIAK MAY .4% CONDNS DB=>MCWB,4.8837228989E-002,3.6766516129E-002,Pass,Pass,0.0000000000,0.0000000000,Pass,Pass
 Warmup Convergence Information,ZONE WAREHOUSE FINE  - STORY GROUND,SizingPeriod: KODIAK MAY .4% CONDNS DB=>MCWB,4.5292478876E-002,2.0285619709E-002,Pass,Pass,0.0000000000,0.0000000000,Pass,Pass
 Warmup Convergence Information,ZONE WAREHOUSE OFFICE  - STORY GROUND,SizingPeriod: KODIAK MAY .4% CONDNS DB=>MCWB,6.4702813741E-002,3.7025514199E-002,Pass,Pass,0.0000000000,0.0000000000,Pass,Pass
Environment,KODIAK MAY .4% CONDNS WB=>MCDB,SizingPeriod:DesignDay,05/21,05/21,SummerDesignDay,1,N/A,N/A,N/A,N/A,N/A,N/A,Clark and Allen
Environment:Daylight Saving,No,SizingPeriod:DesignDay
Environment:Design Day Data,17.00,5.90,DefaultMultipliers,Wetbulb,11.20,{C},100917,320,5.0,0.00,No,No
Environment:Design Day Misc,141,1102.7,0.1968,0.1213,1.0,3.61,20.0,ASHRAETau
Environment:WarmupDays,  7
 Warmup Convergence Information,ZONE WAREHOUSE BULK  - STORY GROUND,SizingPeriod: KODIAK MAY .4% CONDNS WB=>MCDB,4.9175133888E-002,3.6943212948E-002,Pass,Pass,0.0000000000,0.0000000000,Pass,Pass
 Warmup Convergence Information,ZONE WAREHOUSE FINE  - STORY GROUND,SizingPeriod: KODIAK MAY .4% CONDNS WB=>MCDB,4.5722411672E-002,2.0546452831E-002,Pass,Pass,0.0000000000,0.0000000000,Pass,Pass
 Warmup Convergence Information,ZONE WAREHOUSE OFFICE  - STORY GROUND,SizingPeriod: KODIAK MAY .4% CONDNS WB=>MCDB,6.5135377204E-002,3.7174616027E-002,Pass,Pass,0.0000000000,0.0000000000,Pass,Pass
Environment,KODIAK NOVEMBER .4% CONDNS DB=>MCWB,SizingPeriod:DesignDay,11/21,11/21,SummerDesignDay,1,N/A,N/A,N/A,N/A,N/A,N/A,Clark and Allen
Environment:Daylight Saving,No,SizingPeriod:DesignDay
Environment:Design Day Data,9.40,5.30,DefaultMultipliers,Wetbulb,7.30,{C},100917,320,5.0,0.00,No,No
Environment:Design Day Misc,325,1220.2,0.1488,6.4032E-002,1.0,14.25,-19.7,ASHRAETau
Environment:WarmupDays,  8
 Warmup Convergence Information,ZONE WAREHOUSE BULK  - STORY GROUND,SizingPeriod: KODIAK NOVEMBER .4% CONDNS DB=>MCWB,3.2219665286E-002,3.2341825344E-002,Pass,Pass,0.0000000000,0.0000000000,Pass,Pass
 Warmup Convergence Information,ZONE WAREHOUSE FINE  - STORY GROUND,SizingPeriod: KODIAK NOVEMBER .4% CONDNS DB=>MCWB,2.7455271909E-002,1.7166395432E-002,Pass,Pass,0.0000000000,0.0000000000,Pass,Pass
 Warmup Convergence Information,ZONE WAREHOUSE OFFICE  - STORY GROUND,SizingPeriod: KODIAK NOVEMBER .4% CONDNS DB=>MCWB,4.4780288125E-002,4.1783987664E-002,Pass,Pass,0.0000000000,0.0000000000,Pass,Pass
Environment,KODIAK NOVEMBER .4% CONDNS WB=>MCDB,SizingPeriod:DesignDay,11/21,11/21,SummerDesignDay,1,N/A,N/A,N/A,N/A,N/A,N/A,Clark and Allen
Environment:Daylight Saving,No,SizingPeriod:DesignDay
Environment:Design Day Data,8.70,5.30,DefaultMultipliers,Wetbulb,8.20,{C},100917,320,5.0,0.00,No,No
Environment:Design Day Misc,325,1220.2,0.1488,6.4032E-002,1.0,14.25,-19.7,ASHRAETau
Environment:WarmupDays,  8
 Warmup Convergence Information,ZONE WAREHOUSE BULK  - STORY GROUND,SizingPeriod: KODIAK NOVEMBER .4% CONDNS WB=>MCDB,3.2343558010E-002,3.2481965485E-002,Pass,Pass,0.0000000000,0.0000000000,Pass,Pass
 Warmup Convergence Information,ZONE WAREHOUSE FINE  - STORY GROUND,SizingPeriod: KODIAK NOVEMBER .4% CONDNS WB=>MCDB,2.7482529666E-002,1.7101729496E-002,Pass,Pass,0.0000000000,0.0000000000,Pass,Pass
 Warmup Convergence Information,ZONE WAREHOUSE OFFICE  - STORY GROUND,SizingPeriod: KODIAK NOVEMBER .4% CONDNS WB=>MCDB,4.4998476888E-002,4.1866454289E-002,Pass,Pass,0.0000000000,0.0000000000,Pass,Pass
Environment,KODIAK OCTOBER .4% CONDNS DB=>MCWB,SizingPeriod:DesignDay,10/21,10/21,SummerDesignDay,1,N/A,N/A,N/A,N/A,N/A,N/A,Clark and Allen
Environment:Daylight Saving,No,SizingPeriod:DesignDay
Environment:Design Day Data,12.60,6.20,DefaultMultipliers,Wetbulb,9.40,{C},100917,320,5.0,0.00,No,No
Environment:Design Day Misc,294,1191.2,0.1597,7.3069E-002,1.0,15.18,-10.4,ASHRAETau
Environment:WarmupDays,  6
 Warmup Convergence Information,ZONE WAREHOUSE BULK  - STORY GROUND,SizingPeriod: KODIAK OCTOBER .4% CONDNS DB=>MCWB,4.0652166278E-002,3.7733450161E-002,Pass,Pass,0.0000000000,0.0000000000,Pass,Pass
 Warmup Convergence Information,ZONE WAREHOUSE FINE  - STORY GROUND,SizingPeriod: KODIAK OCTOBER .4% CONDNS DB=>MCWB,3.7052846610E-002,2.3448464073E-002,Pass,Pass,0.0000000000,0.0000000000,Pass,Pass
 Warmup Convergence Information,ZONE WAREHOUSE OFFICE  - STORY GROUND,SizingPeriod: KODIAK OCTOBER .4% CONDNS DB=>MCWB,5.9300737232E-002,5.0656472494E-002,Pass,Pass,0.0000000000,0.0000000000,Pass,Pass
Environment,KODIAK OCTOBER .4% CONDNS WB=>MCDB,SizingPeriod:DesignDay,10/21,10/21,SummerDesignDay,1,N/A,N/A,N/A,N/A,N/A,N/A,Clark and Allen
Environment:Daylight Saving,No,SizingPeriod:DesignDay
Environment:Design Day Data,11.30,6.20,DefaultMultipliers,Wetbulb,10.70,{C},100917,320,5.0,0.00,No,No
Environment:Design Day Misc,294,1191.2,0.1597,7.3069E-002,1.0,15.18,-10.4,ASHRAETau
Environment:WarmupDays,  7
 Warmup Convergence Information,ZONE WAREHOUSE BULK  - STORY GROUND,SizingPeriod: KODIAK OCTOBER .4% CONDNS WB=>MCDB,4.0676479870E-002,3.7736463127E-002,Pass,Pass,0.0000000000,0.0000000000,Pass,Pass
 Warmup Convergence Information,ZONE WAREHOUSE FINE  - STORY GROUND,SizingPeriod: KODIAK OCTOBER .4% CONDNS WB=>MCDB,3.7038785852E-002,2.3403988450E-002,Pass,Pass,0.0000000000,0.0000000000,Pass,Pass
 Warmup Convergence Information,ZONE WAREHOUSE OFFICE  - STORY GROUND,SizingPeriod: KODIAK OCTOBER .4% CONDNS WB=>MCDB,5.9647976223E-002,5.0904971877E-002,Pass,Pass,0.0000000000,0.0000000000,Pass,Pass
Environment,KODIAK SEPTEMBER .4% CONDNS DB=>MCWB,SizingPeriod:DesignDay,09/21,09/21,SummerDesignDay,1,N/A,N/A,N/A,N/A,N/A,N/A,Clark and Allen
Environment:Daylight Saving,No,SizingPeriod:DesignDay
Environment:Design Day Data,18.00,6.40,DefaultMultipliers,Wetbulb,12.50,{C},100917,320,5.0,0.00,No,No
Environment:Design Day Misc,264,1151.1,0.1777,9.2179E-002,1.0,6.63,1.0,ASHRAETau
Environment:WarmupDays,  6
 Warmup Convergence Information,ZONE WAREHOUSE BULK  - STORY GROUND,SizingPeriod: KODIAK SEPTEMBER .4% CONDNS DB=>MCWB,4.6250493648E-002,4.0937416831E-002,Pass,Pass,0.0000000000,0.0000000000,Pass,Pass
 Warmup Convergence Information,ZONE WAREHOUSE FINE  - STORY GROUND,SizingPeriod: KODIAK SEPTEMBER .4% CONDNS DB=>MCWB,4.3818306771E-002,2.6116164406E-002,Pass,Pass,0.0000000000,0.0000000000,Pass,Pass
 Warmup Convergence Information,ZONE WAREHOUSE OFFICE  - STORY GROUND,SizingPeriod: KODIAK SEPTEMBER .4% CONDNS DB=>MCWB,6.5984812787E-002,4.9894366743E-002,Pass,Pass,0.0000000000,0.0000000000,Pass,Pass
Environment,KODIAK SEPTEMBER .4% CONDNS WB=>MCDB,SizingPeriod:DesignDay,09/21,09/21,SummerDesignDay,1,N/A,N/A,N/A,N/A,N/A,N/A,Clark and Allen
Environment:Daylight Saving,No,SizingPeriod:DesignDay
Environment:Design Day Data,16.20,6.40,DefaultMultipliers,Wetbulb,13.80,{C},100917,320,5.0,0.00,No,No
Environment:Design Day Misc,264,1151.1,0.1777,9.2179E-002,1.0,6.63,1.0,ASHRAETau
Environment:WarmupDays,  6
 Warmup Convergence Information,ZONE WAREHOUSE BULK  - STORY GROUND,SizingPeriod: KODIAK SEPTEMBER .4% CONDNS WB=>MCDB,4.6231220159E-002,4.0653037178E-002,Pass,Pass,0.0000000000,0.0000000000,Pass,Pass
 Warmup Convergence Information,ZONE WAREHOUSE FINE  - STORY GROUND,SizingPeriod: KODIAK SEPTEMBER .4% CONDNS WB=>MCDB,4.3869374006E-002,2.6192617395E-002,Pass,Pass,0.0000000000,0.0000000000,Pass,Pass
 Warmup Convergence Information,ZONE WAREHOUSE OFFICE  - STORY GROUND,SizingPeriod: KODIAK SEPTEMBER .4% CONDNS WB=>MCDB,6.6387811869E-002,5.0027805598E-002,Pass,Pass,0.0000000000,0.0000000000,Pass,Pass
Environment,KODIAK ANN CLG .4% CONDNS DB=>MWB HVAC Sizing Pass 1,SizingPeriod:DesignDay,08/21,08/21,SummerDesignDay,1,N/A,N/A,N/A,N/A,N/A,N/A,Clark and Allen
Environment:Daylight Saving,No,SizingPeriod:DesignDay
Environment,KODIAK ANN CLG .4% CONDNS WB=>MDB HVAC Sizing Pass 1,SizingPeriod:DesignDay,08/21,08/21,SummerDesignDay,1,N/A,N/A,N/A,N/A,N/A,N/A,Clark and Allen
Environment:Daylight Saving,No,SizingPeriod:DesignDay
Environment,KODIAK ANN HTG 99.6% CONDNS DB HVAC Sizing Pass 1,SizingPeriod:DesignDay,01/21,01/21,WinterDesignDay,1,N/A,N/A,N/A,N/A,N/A,N/A,Clark and Allen
Environment:Daylight Saving,No,SizingPeriod:DesignDay
Environment,KODIAK APRIL .4% CONDNS DB=>MCWB HVAC Sizing Pass 1,SizingPeriod:DesignDay,04/21,04/21,SummerDesignDay,1,N/A,N/A,N/A,N/A,N/A,N/A,Clark and Allen
Environment:Daylight Saving,No,SizingPeriod:DesignDay
Environment,KODIAK APRIL .4% CONDNS WB=>MCDB HVAC Sizing Pass 1,SizingPeriod:DesignDay,04/21,04/21,SummerDesignDay,1,N/A,N/A,N/A,N/A,N/A,N/A,Clark and Allen
Environment:Daylight Saving,No,SizingPeriod:DesignDay
Environment,KODIAK AUGUST .4% CONDNS DB=>MCWB HVAC Sizing Pass 1,SizingPeriod:DesignDay,08/21,08/21,SummerDesignDay,1,N/A,N/A,N/A,N/A,N/A,N/A,Clark and Allen
Environment:Daylight Saving,No,SizingPeriod:DesignDay
Environment,KODIAK AUGUST .4% CONDNS WB=>MCDB HVAC Sizing Pass 1,SizingPeriod:DesignDay,08/21,08/21,SummerDesignDay,1,N/A,N/A,N/A,N/A,N/A,N/A,Clark and Allen
Environment:Daylight Saving,No,SizingPeriod:DesignDay
Environment,KODIAK DECEMBER .4% CONDNS DB=>MCWB HVAC Sizing Pass 1,SizingPeriod:DesignDay,12/21,12/21,SummerDesignDay,1,N/A,N/A,N/A,N/A,N/A,N/A,Clark and Allen
Environment:Daylight Saving,No,SizingPeriod:DesignDay
Environment,KODIAK DECEMBER .4% CONDNS WB=>MCDB HVAC Sizing Pass 1,SizingPeriod:DesignDay,12/21,12/21,SummerDesignDay,1,N/A,N/A,N/A,N/A,N/A,N/A,Clark and Allen
Environment:Daylight Saving,No,SizingPeriod:DesignDay
Environment,KODIAK FEBRUARY .4% CONDNS DB=>MCWB HVAC Sizing Pass 1,SizingPeriod:DesignDay,02/21,02/21,SummerDesignDay,1,N/A,N/A,N/A,N/A,N/A,N/A,Clark and Allen
Environment:Daylight Saving,No,SizingPeriod:DesignDay
Environment,KODIAK FEBRUARY .4% CONDNS WB=>MCDB HVAC Sizing Pass 1,SizingPeriod:DesignDay,02/21,02/21,SummerDesignDay,1,N/A,N/A,N/A,N/A,N/A,N/A,Clark and Allen
Environment:Daylight Saving,No,SizingPeriod:DesignDay
Environment,KODIAK JANUARY .4% CONDNS DB=>MCWB HVAC Sizing Pass 1,SizingPeriod:DesignDay,01/21,01/21,SummerDesignDay,1,N/A,N/A,N/A,N/A,N/A,N/A,Clark and Allen
Environment:Daylight Saving,No,SizingPeriod:DesignDay
Environment,KODIAK JANUARY .4% CONDNS WB=>MCDB HVAC Sizing Pass 1,SizingPeriod:DesignDay,01/21,01/21,SummerDesignDay,1,N/A,N/A,N/A,N/A,N/A,N/A,Clark and Allen
Environment:Daylight Saving,No,SizingPeriod:DesignDay
Environment,KODIAK JULY .4% CONDNS DB=>MCWB HVAC Sizing Pass 1,SizingPeriod:DesignDay,07/21,07/21,SummerDesignDay,1,N/A,N/A,N/A,N/A,N/A,N/A,Clark and Allen
Environment:Daylight Saving,No,SizingPeriod:DesignDay
Environment,KODIAK JULY .4% CONDNS WB=>MCDB HVAC Sizing Pass 1,SizingPeriod:DesignDay,07/21,07/21,SummerDesignDay,1,N/A,N/A,N/A,N/A,N/A,N/A,Clark and Allen
Environment:Daylight Saving,No,SizingPeriod:DesignDay
Environment,KODIAK JUNE .4% CONDNS DB=>MCWB HVAC Sizing Pass 1,SizingPeriod:DesignDay,06/21,06/21,SummerDesignDay,1,N/A,N/A,N/A,N/A,N/A,N/A,Clark and Allen
Environment:Daylight Saving,No,SizingPeriod:DesignDay
Environment,KODIAK JUNE .4% CONDNS WB=>MCDB HVAC Sizing Pass 1,SizingPeriod:DesignDay,06/21,06/21,SummerDesignDay,1,N/A,N/A,N/A,N/A,N/A,N/A,Clark and Allen
Environment:Daylight Saving,No,SizingPeriod:DesignDay
Environment,KODIAK MARCH .4% CONDNS DB=>MCWB HVAC Sizing Pass 1,SizingPeriod:DesignDay,03/21,03/21,SummerDesignDay,1,N/A,N/A,N/A,N/A,N/A,N/A,Clark and Allen
Environment:Daylight Saving,No,SizingPeriod:DesignDay
Environment,KODIAK MARCH .4% CONDNS WB=>MCDB HVAC Sizing Pass 1,SizingPeriod:DesignDay,03/21,03/21,SummerDesignDay,1,N/A,N/A,N/A,N/A,N/A,N/A,Clark and Allen
Environment:Daylight Saving,No,SizingPeriod:DesignDay
Environment,KODIAK MAY .4% CONDNS DB=>MCWB HVAC Sizing Pass 1,SizingPeriod:DesignDay,05/21,05/21,SummerDesignDay,1,N/A,N/A,N/A,N/A,N/A,N/A,Clark and Allen
Environment:Daylight Saving,No,SizingPeriod:DesignDay
Environment,KODIAK MAY .4% CONDNS WB=>MCDB HVAC Sizing Pass 1,SizingPeriod:DesignDay,05/21,05/21,SummerDesignDay,1,N/A,N/A,N/A,N/A,N/A,N/A,Clark and Allen
Environment:Daylight Saving,No,SizingPeriod:DesignDay
Environment,KODIAK NOVEMBER .4% CONDNS DB=>MCWB HVAC Sizing Pass 1,SizingPeriod:DesignDay,11/21,11/21,SummerDesignDay,1,N/A,N/A,N/A,N/A,N/A,N/A,Clark and Allen
Environment:Daylight Saving,No,SizingPeriod:DesignDay
Environment,KODIAK NOVEMBER .4% CONDNS WB=>MCDB HVAC Sizing Pass 1,SizingPeriod:DesignDay,11/21,11/21,SummerDesignDay,1,N/A,N/A,N/A,N/A,N/A,N/A,Clark and Allen
Environment:Daylight Saving,No,SizingPeriod:DesignDay
Environment,KODIAK OCTOBER .4% CONDNS DB=>MCWB HVAC Sizing Pass 1,SizingPeriod:DesignDay,10/21,10/21,SummerDesignDay,1,N/A,N/A,N/A,N/A,N/A,N/A,Clark and Allen
Environment:Daylight Saving,No,SizingPeriod:DesignDay
Environment,KODIAK OCTOBER .4% CONDNS WB=>MCDB HVAC Sizing Pass 1,SizingPeriod:DesignDay,10/21,10/21,SummerDesignDay,1,N/A,N/A,N/A,N/A,N/A,N/A,Clark and Allen
Environment:Daylight Saving,No,SizingPeriod:DesignDay
Environment,KODIAK SEPTEMBER .4% CONDNS DB=>MCWB HVAC Sizing Pass 1,SizingPeriod:DesignDay,09/21,09/21,SummerDesignDay,1,N/A,N/A,N/A,N/A,N/A,N/A,Clark and Allen
Environment:Daylight Saving,No,SizingPeriod:DesignDay
Environment,KODIAK SEPTEMBER .4% CONDNS WB=>MCDB HVAC Sizing Pass 1,SizingPeriod:DesignDay,09/21,09/21,SummerDesignDay,1,N/A,N/A,N/A,N/A,N/A,N/A,Clark and Allen
Environment:Daylight Saving,No,SizingPeriod:DesignDay
! <Program Control Information:Threads/Parallel Sims>, Threading Supported,Maximum Number of Threads, Env Set Threads (OMP_NUM_THREADS), EP Env Set Threads (EP_OMP_NUM_THREADS), IDF Set Threads, Number of Threads Used (Interior Radiant Exchange), Number Nominal Surfaces, Number Parallel Sims
Program Control:Threads/Parallel Sims, No,1, N/A, N/A, N/A, N/A, N/A, N/A
End of Data
