Program Version,EnergyPlus, Version 23.1.0-87ed9199d4, YMD=2023.06.01 11:04
! <Version>, Version ID
 Version, 23.1
! <Timesteps per Hour>, #TimeSteps, Minutes per TimeStep {minutes}
 Timesteps per Hour,  6, 10
! <System Convergence Limits>, Minimum System TimeStep {minutes}, Max HVAC Iterations, Minimum Plant Iterations, Maximum Plant Iterations
 System Convergence Limits, 1, 20, 2, 8
! <Simulation Control>, Do Zone Sizing, Do System Sizing, Do Plant Sizing, Do Design Days, Do Weather Simulation, Do HVAC Sizing Simulation
 Simulation Control, Yes, Yes, Yes, Yes, No, Yes
! <Performance Precision Tradeoffs>, Use Coil Direct Simulation, Zone Radiant Exchange Algorithm, Override Mode, Number of Timestep In Hour, Force Euler Method, Minimum Number of Warmup Days, Force Suppress All Begin Environment Resets, Minimum System Timestep, MaxZoneTempDiff, MaxAllowedDelTemp
 Performance Precision Tradeoffs, No, ScriptF, Normal, 6, No, 1, No, 1.0, 0.300, 2.0000E-003
! <Output Reporting Tolerances>, Tolerance for Time Heating Setpoint Not Met, Tolerance for Zone Cooling Setpoint Not Met Time
 Output Reporting Tolerances, 0.200, 0.200, 
! <Site:GroundTemperature:BuildingSurface>,Jan{C},Feb{C},Mar{C},Apr{C},May{C},Jun{C},Jul{C},Aug{C},Sep{C},Oct{C},Nov{C},Dec{C}
 Site:GroundTemperature:BuildingSurface,  18.00,  18.00,  18.00,  18.00,  18.00,  18.00,  18.00,  18.00,  18.00,  18.00,  18.00,  18.00
! <Site:GroundTemperature:FCfactorMethod>,Jan{C},Feb{C},Mar{C},Apr{C},May{C},Jun{C},Jul{C},Aug{C},Sep{C},Oct{C},Nov{C},Dec{C}
 Site:GroundTemperature:FCfactorMethod,  -3.10, -17.70, -19.30, -17.60, -15.40, -10.30,   0.70,  10.60,  16.00,  16.90,  14.20,   6.70
! <Site:GroundTemperature:Shallow>,Jan{C},Feb{C},Mar{C},Apr{C},May{C},Jun{C},Jul{C},Aug{C},Sep{C},Oct{C},Nov{C},Dec{C}
 Site:GroundTemperature:Shallow,  13.00,  13.00,  13.00,  13.00,  13.00,  13.00,  13.00,  13.00,  13.00,  13.00,  13.00,  13.00
! <Site:GroundTemperature:Deep>,Jan{C},Feb{C},Mar{C},Apr{C},May{C},Jun{C},Jul{C},Aug{C},Sep{C},Oct{C},Nov{C},Dec{C}
 Site:GroundTemperature:Deep,  16.00,  16.00,  16.00,  16.00,  16.00,  16.00,  16.00,  16.00,  16.00,  16.00,  16.00,  16.00
! <Site:GroundReflectance>,Jan{dimensionless},Feb{dimensionless},Mar{dimensionless},Apr{dimensionless},May{dimensionless},Jun{dimensionless},Jul{dimensionless},Aug{dimensionless},Sep{dimensionless},Oct{dimensionless},Nov{dimensionless},Dec{dimensionless}
 Site:GroundReflectance,  0.20,  0.20,  0.20,  0.20,  0.20,  0.20,  0.20,  0.20,  0.20,  0.20,  0.20,  0.20
! <Site:GroundReflectance:SnowModifier>, Normal, Daylighting {dimensionless}
 Site:GroundReflectance:SnowModifier,   1.000,   1.000
! <Site:GroundReflectance:Snow>,Jan{dimensionless},Feb{dimensionless},Mar{dimensionless},Apr{dimensionless},May{dimensionless},Jun{dimensionless},Jul{dimensionless},Aug{dimensionless},Sep{dimensionless},Oct{dimensionless},Nov{dimensionless},Dec{dimensionless}
 Site:GroundReflectance:Snow,  0.20,  0.20,  0.20,  0.20,  0.20,  0.20,  0.20,  0.20,  0.20,  0.20,  0.20,  0.20
! <Site:GroundReflectance:Snow:Daylighting>,Jan{dimensionless},Feb{dimensionless},Mar{dimensionless},Apr{dimensionless},May{dimensionless},Jun{dimensionless},Jul{dimensionless},Aug{dimensionless},Sep{dimensionless},Oct{dimensionless},Nov{dimensionless},Dec{dimensionless}
 Site:GroundReflectance:Snow:Daylighting,  0.20,  0.20,  0.20,  0.20,  0.20,  0.20,  0.20,  0.20,  0.20,  0.20,  0.20,  0.20
! <Environment:Weather Station>,Wind Sensor Height Above Ground {m},Wind Speed Profile Exponent {},Wind Speed Profile Boundary Layer Thickness {m},Air Temperature Sensor Height Above Ground {m},Wind Speed Modifier Coefficient-Internal,Temperature Modifier Coefficient-Internal
Environment:Weather Station,10.000,0.140,270.000,1.500,1.586,9.750E-003
! <Site:Location>, Location Name, Latitude {N+/S- Deg}, Longitude {E+/W- Deg},  Time Zone Number {GMT+/-}, Elevation {m},  Standard Pressure at Elevation {Pa}, Standard RhoAir at Elevation
Site:Location,Kodiak Airport AK USA TMY3 WMO#=703500,57.75,-152.50,-9.00,5.00,101265,1.2036
! <Site Water Mains Temperature Information>,Calculation Method{},Water Mains Temperature Schedule Name{},Annual Average Outdoor Air Temperature{C},Maximum Difference In Monthly Average Outdoor Air Temperatures{deltaC},Fixed Default Water Mains Temperature{C}
Site Water Mains Temperature Information,Correlation,NA,-1.53,36.20,NA
! <Building Information>, Building Name,North Axis {deg},Terrain,  Loads Convergence Tolerance Value,Temperature Convergence Tolerance Value,  Solar Distribution,Maximum Number of Warmup Days,Minimum Number of Warmup Days
 Building Information,90.1-2016|MediumOffice,0.000,City,4.00000E-002,0.20000,FullInteriorAndExterior,25,6
! <Inside Convection Algorithm>, Algorithm {Simple | TARP | CeilingDiffuser | AdaptiveConvectionAlgorithm}
Inside Convection Algorithm,TARP
! <Outside Convection Algorithm>, Algorithm {SimpleCombined | TARP | MoWitt | DOE-2 | AdaptiveConvectionAlgorithm}
Outside Convection Algorithm,TARP
! <Sky Radiance Distribution>, Value {Anisotropic}
Sky Radiance Distribution,Anisotropic
! <Zone Air Solution Algorithm>, Algorithm {ThirdOrderBackwardDifference | AnalyticalSolution | EulerMethod}, Space Heat Balance Sizing, Space Heat Balance Simulation
 Zone Air Solution Algorithm, ThirdOrderBackwardDifference, No, No
! <Zone Air Carbon Dioxide Balance Simulation>, Simulation {Yes/No}, Carbon Dioxide Concentration
 Zone Air Carbon Dioxide Balance Simulation, No,N/A
! <Zone Air Generic Contaminant Balance Simulation>, Simulation {Yes/No}, Generic Contaminant Concentration
 Zone Air Generic Contaminant Balance Simulation, No,N/A
! <Zone Air Mass Flow Balance Simulation>, Enforce Mass Balance, Adjust Zone Mixing and Return {AdjustMixingOnly | AdjustReturnOnly | AdjustMixingThenReturn | AdjustReturnThenMixing | None}, Adjust Zone Infiltration {AddInfiltration | AdjustInfiltration | None}, Infiltration Zones {MixingSourceZonesOnly | AllZones}
 Zone Air Mass Flow Balance Simulation, No,N/A,N/A,N/A
! <HVACSystemRootFindingAlgorithm>, Value {RegulaFalsi | Bisection | BisectionThenRegulaFalsi | RegulaFalsiThenBisection}
 HVACSystemRootFindingAlgorithm, RegulaFalsi
! <Environment:Site Atmospheric Variation>,Wind Speed Profile Exponent {},Wind Speed Profile Boundary Layer Thickness {m},Air Temperature Gradient Coefficient {K/m}
Environment:Site Atmospheric Variation,0.330,460.000,6.500000E-003
! <Surface Geometry>,Starting Corner,Vertex Input Direction,Coordinate System,Daylight Reference Point Coordinate System,Rectangular (Simple) Surface Coordinate System
 Surface Geometry,UpperLeftCorner,Counterclockwise,RelativeCoordinateSystem,RelativeCoordinateSystem,RelativeToZoneOrigin
! <Surface Heat Transfer Algorithm>, Value {CTF - ConductionTransferFunction | EMPD - MoisturePenetrationDepthConductionTransferFunction | CondFD - ConductionFiniteDifference | HAMT - CombinedHeatAndMoistureFiniteElement} - Description,Inside Surface Max Temperature Limit{C}, Surface Convection Coefficient Lower Limit {W/m2-K}, Surface Convection Coefficient Upper Limit {W/m2-K}
Surface Heat Transfer Algorithm, CTF - ConductionTransferFunction,200,0.10,1000.0
! <Shading Summary>, Number of Fixed Detached Shades, Number of Building Detached Shades, Number of Attached Shades
 Shading Summary,0,0,0
! <Zone Summary>, Number of Zones, Number of Zone Surfaces, Number of SubSurfaces
 Zone Summary,18,132,24
! <Zone Information>,Zone Name,North Axis {deg},Origin X-Coordinate {m},Origin Y-Coordinate {m},Origin Z-Coordinate {m},Centroid X-Coordinate {m},Centroid Y-Coordinate {m},Centroid Z-Coordinate {m},Type,Zone Multiplier,Zone List Multiplier,Minimum X {m},Maximum X {m},Minimum Y {m},Maximum Y {m},Minimum Z {m},Maximum Z {m},Ceiling Height {m},Volume {m3},Zone Inside Convection Algorithm {Simple-Detailed-CeilingDiffuser-TrombeWall},Zone Outside Convection Algorithm {Simple-Detailed-Tarp-MoWitt-DOE-2-BLAST}, Floor Area {m2},Exterior Gross Wall Area {m2},Exterior Net Wall Area {m2},Exterior Window Area {m2}, Number of Surfaces, Number of SubSurfaces, Number of Shading SubSurfaces,  Part of Total Building Area
 Zone Information, ZONE OFFICE WHOLEBUILDING - MD OFFICE A  - STORY GROUND,0.0,-7.47,-8.03,0.00,-1.23E-014,-5.74,3.96,1,1,1,-7.47,7.47,-8.03,-3.45,0.00,7.92,7.92,541.07,TARP,TARP,68.27,118.34,100.59,17.75,6,1,0,Yes
 Zone Information, ZONE OFFICE WHOLEBUILDING - MD OFFICE A  - STORY TOP,0.0,-7.47,-8.03,7.92,-1.24E-014,-5.74,11.89,1,1,1,-7.47,7.47,-8.03,-3.45,7.92,15.85,7.92,541.07,TARP,TARP,68.27,118.34,100.59,17.75,6,1,0,Yes
 Zone Information, ZONE OFFICE WHOLEBUILDING - MD OFFICE A END_A - STORY GROUND,0.0,-12.04,-8.03,0.00,-9.75,-5.74,3.96,1,1,1,-12.04,-7.47,-8.03,-3.45,0.00,7.92,7.92,165.65,TARP,TARP,20.90,72.46,61.59,10.87,6,2,0,Yes
 Zone Information, ZONE OFFICE WHOLEBUILDING - MD OFFICE A END_A - STORY TOP,0.0,-12.04,-8.03,7.92,-9.75,-5.74,11.89,1,1,1,-12.04,-7.47,-8.03,-3.45,7.92,15.85,7.92,165.65,TARP,TARP,20.90,72.46,61.59,10.87,6,2,0,Yes
 Zone Information, ZONE OFFICE WHOLEBUILDING - MD OFFICE A END_B - STORY GROUND,0.0,7.47,-8.03,0.00,9.75,-5.74,3.96,1,1,1,7.47,12.04,-8.03,-3.45,0.00,7.92,7.92,165.65,TARP,TARP,20.90,72.46,61.59,10.87,6,2,0,Yes
 Zone Information, ZONE OFFICE WHOLEBUILDING - MD OFFICE A END_B - STORY TOP,0.0,7.47,-8.03,7.92,9.75,-5.74,11.89,1,1,1,7.47,12.04,-8.03,-3.45,7.92,15.85,7.92,165.65,TARP,TARP,20.90,72.46,61.59,10.87,6,2,0,Yes
 Zone Information, ZONE OFFICE WHOLEBUILDING - MD OFFICE B  - STORY GROUND,0.0,-7.47,-3.45,0.00,-1.33E-014,5.38E-016,3.96,1,1,1,-7.47,7.47,-3.45,3.45,0.00,7.92,7.92,817.46,TARP,TARP,103.15,0.00,0.00,0.00,6,0,0,Yes
 Zone Information, ZONE OFFICE WHOLEBUILDING - MD OFFICE B  - STORY TOP,0.0,-7.47,-3.45,7.92,-1.32E-014,6.41E-016,11.89,1,1,1,-7.47,7.47,-3.45,3.45,7.92,15.85,7.92,817.46,TARP,TARP,103.15,0.00,0.00,0.00,6,0,0,Yes
 Zone Information, ZONE OFFICE WHOLEBUILDING - MD OFFICE B END_A - STORY GROUND,0.0,-12.04,-3.45,0.00,-9.75,7.63E-016,3.96,1,1,1,-12.04,-7.47,-3.45,3.45,0.00,7.92,7.92,250.27,TARP,TARP,31.58,54.74,46.53,8.21,6,1,0,Yes
 Zone Information, ZONE OFFICE WHOLEBUILDING - MD OFFICE B END_A - STORY TOP,0.0,-12.04,-3.45,7.92,-9.75,7.36E-016,11.89,1,1,1,-12.04,-7.47,-3.45,3.45,7.92,15.85,7.92,250.27,TARP,TARP,31.58,54.74,46.53,8.21,6,1,0,Yes
 Zone Information, ZONE OFFICE WHOLEBUILDING - MD OFFICE B END_B - STORY GROUND,0.0,7.47,-3.45,0.00,9.75,6.49E-016,3.96,1,1,1,7.47,12.04,-3.45,3.45,0.00,7.92,7.92,250.27,TARP,TARP,31.58,54.74,46.53,8.21,6,1,0,Yes
 Zone Information, ZONE OFFICE WHOLEBUILDING - MD OFFICE B END_B - STORY TOP,0.0,7.47,-3.45,7.92,9.75,7.63E-016,11.89,1,1,1,7.47,12.04,-3.45,3.45,7.92,15.85,7.92,250.27,TARP,TARP,31.58,54.74,46.53,8.21,6,1,0,Yes
 Zone Information, ZONE OFFICE WHOLEBUILDING - MD OFFICE C  - STORY GROUND,0.0,-7.47,3.45,0.00,-1.23E-014,5.74,3.96,1,1,1,-7.47,7.47,3.45,8.03,0.00,7.92,7.92,541.07,TARP,TARP,68.27,118.34,100.59,17.75,6,1,0,Yes
 Zone Information, ZONE OFFICE WHOLEBUILDING - MD OFFICE C  - STORY TOP,0.0,-7.47,3.45,7.92,-1.23E-014,5.74,11.89,1,1,1,-7.47,7.47,3.45,8.03,7.92,15.85,7.92,541.07,TARP,TARP,68.27,118.34,100.59,17.75,6,1,0,Yes
 Zone Information, ZONE OFFICE WHOLEBUILDING - MD OFFICE C END_A - STORY GROUND,0.0,-12.04,3.45,0.00,-9.75,5.74,3.96,1,1,1,-12.04,-7.47,3.45,8.03,0.00,7.92,7.92,165.65,TARP,TARP,20.90,72.46,61.59,10.87,6,2,0,Yes
 Zone Information, ZONE OFFICE WHOLEBUILDING - MD OFFICE C END_A - STORY TOP,0.0,-12.04,3.45,7.92,-9.75,5.74,11.89,1,1,1,-12.04,-7.47,3.45,8.03,7.92,15.85,7.92,165.65,TARP,TARP,20.90,72.46,61.59,10.87,6,2,0,Yes
 Zone Information, ZONE OFFICE WHOLEBUILDING - MD OFFICE C END_B - STORY GROUND,0.0,7.47,3.45,0.00,9.75,5.74,3.96,1,1,1,7.47,12.04,3.45,8.03,0.00,7.92,7.92,165.65,TARP,TARP,20.90,72.46,61.59,10.87,6,2,0,Yes
 Zone Information, ZONE OFFICE WHOLEBUILDING - MD OFFICE C END_B - STORY TOP,0.0,7.47,3.45,7.92,9.75,5.74,11.89,1,1,1,7.47,12.04,3.45,8.03,7.92,15.85,7.92,165.65,TARP,TARP,20.90,72.46,61.59,10.87,6,2,0,Yes
! <Zone Internal Gains Nominal>,Zone Name, Floor Area {m2},# Occupants,Area per Occupant {m2/person},Occupant per Area {person/m2},Interior Lighting {W/m2},Electric Load {W/m2},Gas Load {W/m2},Other Load {W/m2},Hot Water Eq {W/m2},Steam Equipment {W/m2},Sum Loads per Area {W/m2},Outdoor Controlled Baseboard Heat
 Zone Internal Gains Nominal, ZONE OFFICE WHOLEBUILDING - MD OFFICE A  - STORY GROUND,68.27,3.7,18.581,5.382E-002,8.503,8.073,0.000,0.000,0.000,0.000,16.576,No
 Zone Internal Gains Nominal, ZONE OFFICE WHOLEBUILDING - MD OFFICE A  - STORY TOP,68.27,3.7,18.581,5.382E-002,8.503,8.073,0.000,0.000,0.000,0.000,16.576,No
 Zone Internal Gains Nominal, ZONE OFFICE WHOLEBUILDING - MD OFFICE A END_A - STORY GROUND,20.90,1.1,18.581,5.382E-002,8.503,8.073,0.000,0.000,0.000,0.000,16.576,No
 Zone Internal Gains Nominal, ZONE OFFICE WHOLEBUILDING - MD OFFICE A END_A - STORY TOP,20.90,1.1,18.581,5.382E-002,8.503,8.073,0.000,0.000,0.000,0.000,16.576,No
 Zone Internal Gains Nominal, ZONE OFFICE WHOLEBUILDING - MD OFFICE A END_B - STORY GROUND,20.90,1.1,18.581,5.382E-002,8.503,8.073,0.000,0.000,0.000,0.000,16.576,No
 Zone Internal Gains Nominal, ZONE OFFICE WHOLEBUILDING - MD OFFICE A END_B - STORY TOP,20.90,1.1,18.581,5.382E-002,8.503,8.073,0.000,0.000,0.000,0.000,16.576,No
 Zone Internal Gains Nominal, ZONE OFFICE WHOLEBUILDING - MD OFFICE B  - STORY GROUND,103.15,5.6,18.581,5.382E-002,8.503,8.073,0.000,0.000,0.000,0.000,16.576,No
 Zone Internal Gains Nominal, ZONE OFFICE WHOLEBUILDING - MD OFFICE B  - STORY TOP,103.15,5.6,18.581,5.382E-002,8.503,8.073,0.000,0.000,0.000,0.000,16.576,No
 Zone Internal Gains Nominal, ZONE OFFICE WHOLEBUILDING - MD OFFICE B END_A - STORY GROUND,31.58,1.7,18.581,5.382E-002,8.503,8.073,0.000,0.000,0.000,0.000,16.576,No
 Zone Internal Gains Nominal, ZONE OFFICE WHOLEBUILDING - MD OFFICE B END_A - STORY TOP,31.58,1.7,18.581,5.382E-002,8.503,8.073,0.000,0.000,0.000,0.000,16.576,No
 Zone Internal Gains Nominal, ZONE OFFICE WHOLEBUILDING - MD OFFICE B END_B - STORY GROUND,31.58,1.7,18.581,5.382E-002,8.503,8.073,0.000,0.000,0.000,0.000,16.576,No
 Zone Internal Gains Nominal, ZONE OFFICE WHOLEBUILDING - MD OFFICE B END_B - STORY TOP,31.58,1.7,18.581,5.382E-002,8.503,8.073,0.000,0.000,0.000,0.000,16.576,No
 Zone Internal Gains Nominal, ZONE OFFICE WHOLEBUILDING - MD OFFICE C  - STORY GROUND,68.27,3.7,18.581,5.382E-002,8.503,8.073,0.000,0.000,0.000,0.000,16.576,No
 Zone Internal Gains Nominal, ZONE OFFICE WHOLEBUILDING - MD OFFICE C  - STORY TOP,68.27,3.7,18.581,5.382E-002,8.503,8.073,0.000,0.000,0.000,0.000,16.576,No
 Zone Internal Gains Nominal, ZONE OFFICE WHOLEBUILDING - MD OFFICE C END_A - STORY GROUND,20.90,1.1,18.581,5.382E-002,8.503,8.073,0.000,0.000,0.000,0.000,16.576,No
 Zone Internal Gains Nominal, ZONE OFFICE WHOLEBUILDING - MD OFFICE C END_A - STORY TOP,20.90,1.1,18.581,5.382E-002,8.503,8.073,0.000,0.000,0.000,0.000,16.576,No
 Zone Internal Gains Nominal, ZONE OFFICE WHOLEBUILDING - MD OFFICE C END_B - STORY GROUND,20.90,1.1,18.581,5.382E-002,8.503,8.073,0.000,0.000,0.000,0.000,16.576,No
 Zone Internal Gains Nominal, ZONE OFFICE WHOLEBUILDING - MD OFFICE C END_B - STORY TOP,20.90,1.1,18.581,5.382E-002,8.503,8.073,0.000,0.000,0.000,0.000,16.576,No
! <People Internal Gains Nominal>,Name,Schedule Name,Zone Name,Zone Floor Area {m2},# Zone Occupants,Number of People {},People/Floor Area {person/m2},Floor Area per person {m2/person},Fraction Radiant,Fraction Convected,Sensible Fraction Calculation,Activity level,ASHRAE 55 Warnings,Carbon Dioxide Generation Rate,Nominal Minimum Number of People,Nominal Maximum Number of People
 People Internal Gains Nominal, OFFICE WHOLEBUILDING - MD OFFICE B END_A - STORY GROUND OFFICE WHOLEBUILDING - MD OFFICE PEOPLE,OFFICEMEDIUM BLDG_OCC_SCH,ZONE OFFICE WHOLEBUILDING - MD OFFICE B END_A - STORY GROUND,31.58,1.7,1.7,5.382E-002,18.581,0.300,0.700,AutoCalculate,OFFICEMEDIUM ACTIVITY_SCH,No,3.8200E-008,0,2
 People Internal Gains Nominal, OFFICE WHOLEBUILDING - MD OFFICE A  - STORY GROUND OFFICE WHOLEBUILDING - MD OFFICE PEOPLE,OFFICEMEDIUM BLDG_OCC_SCH,ZONE OFFICE WHOLEBUILDING - MD OFFICE A  - STORY GROUND,68.27,3.7,3.7,5.382E-002,18.581,0.300,0.700,AutoCalculate,OFFICEMEDIUM ACTIVITY_SCH,No,3.8200E-008,0,4
 People Internal Gains Nominal, OFFICE WHOLEBUILDING - MD OFFICE C END_A - STORY GROUND OFFICE WHOLEBUILDING - MD OFFICE PEOPLE,OFFICEMEDIUM BLDG_OCC_SCH,ZONE OFFICE WHOLEBUILDING - MD OFFICE C END_A - STORY GROUND,20.90,1.1,1.1,5.382E-002,18.581,0.300,0.700,AutoCalculate,OFFICEMEDIUM ACTIVITY_SCH,No,3.8200E-008,0,1
 People Internal Gains Nominal, OFFICE WHOLEBUILDING - MD OFFICE B  - STORY GROUND OFFICE WHOLEBUILDING - MD OFFICE PEOPLE,OFFICEMEDIUM BLDG_OCC_SCH,ZONE OFFICE WHOLEBUILDING - MD OFFICE B  - STORY GROUND,103.15,5.6,5.6,5.382E-002,18.581,0.300,0.700,AutoCalculate,OFFICEMEDIUM ACTIVITY_SCH,No,3.8200E-008,0,6
 People Internal Gains Nominal, OFFICE WHOLEBUILDING - MD OFFICE C  - STORY GROUND OFFICE WHOLEBUILDING - MD OFFICE PEOPLE,OFFICEMEDIUM BLDG_OCC_SCH,ZONE OFFICE WHOLEBUILDING - MD OFFICE C  - STORY GROUND,68.27,3.7,3.7,5.382E-002,18.581,0.300,0.700,AutoCalculate,OFFICEMEDIUM ACTIVITY_SCH,No,3.8200E-008,0,4
 People Internal Gains Nominal, OFFICE WHOLEBUILDING - MD OFFICE B END_B - STORY GROUND OFFICE WHOLEBUILDING - MD OFFICE PEOPLE,OFFICEMEDIUM BLDG_OCC_SCH,ZONE OFFICE WHOLEBUILDING - MD OFFICE B END_B - STORY GROUND,31.58,1.7,1.7,5.382E-002,18.581,0.300,0.700,AutoCalculate,OFFICEMEDIUM ACTIVITY_SCH,No,3.8200E-008,0,2
 People Internal Gains Nominal, OFFICE WHOLEBUILDING - MD OFFICE C END_B - STORY GROUND OFFICE WHOLEBUILDING - MD OFFICE PEOPLE,OFFICEMEDIUM BLDG_OCC_SCH,ZONE OFFICE WHOLEBUILDING - MD OFFICE C END_B - STORY GROUND,20.90,1.1,1.1,5.382E-002,18.581,0.300,0.700,AutoCalculate,OFFICEMEDIUM ACTIVITY_SCH,No,3.8200E-008,0,1
 People Internal Gains Nominal, OFFICE WHOLEBUILDING - MD OFFICE B END_A - STORY TOP OFFICE WHOLEBUILDING - MD OFFICE PEOPLE,OFFICEMEDIUM BLDG_OCC_SCH,ZONE OFFICE WHOLEBUILDING - MD OFFICE B END_A - STORY TOP,31.58,1.7,1.7,5.382E-002,18.581,0.300,0.700,AutoCalculate,OFFICEMEDIUM ACTIVITY_SCH,No,3.8200E-008,0,2
 People Internal Gains Nominal, OFFICE WHOLEBUILDING - MD OFFICE A END_A - STORY TOP OFFICE WHOLEBUILDING - MD OFFICE PEOPLE,OFFICEMEDIUM BLDG_OCC_SCH,ZONE OFFICE WHOLEBUILDING - MD OFFICE A END_A - STORY TOP,20.90,1.1,1.1,5.382E-002,18.581,0.300,0.700,AutoCalculate,OFFICEMEDIUM ACTIVITY_SCH,No,3.8200E-008,0,1
 People Internal Gains Nominal, OFFICE WHOLEBUILDING - MD OFFICE A  - STORY TOP OFFICE WHOLEBUILDING - MD OFFICE PEOPLE,OFFICEMEDIUM BLDG_OCC_SCH,ZONE OFFICE WHOLEBUILDING - MD OFFICE A  - STORY TOP,68.27,3.7,3.7,5.382E-002,18.581,0.300,0.700,AutoCalculate,OFFICEMEDIUM ACTIVITY_SCH,No,3.8200E-008,0,4
 People Internal Gains Nominal, OFFICE WHOLEBUILDING - MD OFFICE A END_B - STORY GROUND OFFICE WHOLEBUILDING - MD OFFICE PEOPLE,OFFICEMEDIUM BLDG_OCC_SCH,ZONE OFFICE WHOLEBUILDING - MD OFFICE A END_B - STORY GROUND,20.90,1.1,1.1,5.382E-002,18.581,0.300,0.700,AutoCalculate,OFFICEMEDIUM ACTIVITY_SCH,No,3.8200E-008,0,1
 People Internal Gains Nominal, OFFICE WHOLEBUILDING - MD OFFICE C END_A - STORY TOP OFFICE WHOLEBUILDING - MD OFFICE PEOPLE,OFFICEMEDIUM BLDG_OCC_SCH,ZONE OFFICE WHOLEBUILDING - MD OFFICE C END_A - STORY TOP,20.90,1.1,1.1,5.382E-002,18.581,0.300,0.700,AutoCalculate,OFFICEMEDIUM ACTIVITY_SCH,No,3.8200E-008,0,1
 People Internal Gains Nominal, OFFICE WHOLEBUILDING - MD OFFICE B  - STORY TOP OFFICE WHOLEBUILDING - MD OFFICE PEOPLE,OFFICEMEDIUM BLDG_OCC_SCH,ZONE OFFICE WHOLEBUILDING - MD OFFICE B  - STORY TOP,103.15,5.6,5.6,5.382E-002,18.581,0.300,0.700,AutoCalculate,OFFICEMEDIUM ACTIVITY_SCH,No,3.8200E-008,0,6
 People Internal Gains Nominal, OFFICE WHOLEBUILDING - MD OFFICE C  - STORY TOP OFFICE WHOLEBUILDING - MD OFFICE PEOPLE,OFFICEMEDIUM BLDG_OCC_SCH,ZONE OFFICE WHOLEBUILDING - MD OFFICE C  - STORY TOP,68.27,3.7,3.7,5.382E-002,18.581,0.300,0.700,AutoCalculate,OFFICEMEDIUM ACTIVITY_SCH,No,3.8200E-008,0,4
 People Internal Gains Nominal, OFFICE WHOLEBUILDING - MD OFFICE A END_B - STORY TOP OFFICE WHOLEBUILDING - MD OFFICE PEOPLE,OFFICEMEDIUM BLDG_OCC_SCH,ZONE OFFICE WHOLEBUILDING - MD OFFICE A END_B - STORY TOP,20.90,1.1,1.1,5.382E-002,18.581,0.300,0.700,AutoCalculate,OFFICEMEDIUM ACTIVITY_SCH,No,3.8200E-008,0,1
 People Internal Gains Nominal, OFFICE WHOLEBUILDING - MD OFFICE B END_B - STORY TOP OFFICE WHOLEBUILDING - MD OFFICE PEOPLE,OFFICEMEDIUM BLDG_OCC_SCH,ZONE OFFICE WHOLEBUILDING - MD OFFICE B END_B - STORY TOP,31.58,1.7,1.7,5.382E-002,18.581,0.300,0.700,AutoCalculate,OFFICEMEDIUM ACTIVITY_SCH,No,3.8200E-008,0,2
 People Internal Gains Nominal, OFFICE WHOLEBUILDING - MD OFFICE A END_A - STORY GROUND OFFICE WHOLEBUILDING - MD OFFICE PEOPLE,OFFICEMEDIUM BLDG_OCC_SCH,ZONE OFFICE WHOLEBUILDING - MD OFFICE A END_A - STORY GROUND,20.90,1.1,1.1,5.382E-002,18.581,0.300,0.700,AutoCalculate,OFFICEMEDIUM ACTIVITY_SCH,No,3.8200E-008,0,1
 People Internal Gains Nominal, OFFICE WHOLEBUILDING - MD OFFICE C END_B - STORY TOP OFFICE WHOLEBUILDING - MD OFFICE PEOPLE,OFFICEMEDIUM BLDG_OCC_SCH,ZONE OFFICE WHOLEBUILDING - MD OFFICE C END_B - STORY TOP,20.90,1.1,1.1,5.382E-002,18.581,0.300,0.700,AutoCalculate,OFFICEMEDIUM ACTIVITY_SCH,No,3.8200E-008,0,1
! <Lights Internal Gains Nominal>,Name,Schedule Name,Zone Name,Zone Floor Area {m2},# Zone Occupants,Lighting Level {W},Lights/Floor Area {W/m2},Lights per person {W/person},Fraction Return Air,Fraction Radiant,Fraction Short Wave,Fraction Convected,Fraction Replaceable,End-Use Category,Nominal Minimum Lighting Level {W},Nominal Maximum Lighting Level {W}
 Lights Internal Gains Nominal, OFFICE WHOLEBUILDING - MD OFFICE B END_A - STORY GROUND OFFICE WHOLEBUILDING - MD OFFICE LIGHTS,OFFICEMEDIUM BLDG_LIGHT_SCH_2013,ZONE OFFICE WHOLEBUILDING - MD OFFICE B END_A - STORY GROUND,31.58,1.7,268.550,8.503,158.000,0.000,0.700,0.200,0.100,1.000,General,0.000,268.550
 Lights Internal Gains Nominal, OFFICE WHOLEBUILDING - MD OFFICE A  - STORY GROUND OFFICE WHOLEBUILDING - MD OFFICE LIGHTS,OFFICEMEDIUM BLDG_LIGHT_SCH_2013,ZONE OFFICE WHOLEBUILDING - MD OFFICE A  - STORY GROUND,68.27,3.7,580.575,8.503,158.000,0.000,0.700,0.200,0.100,1.000,General,0.000,580.575
 Lights Internal Gains Nominal, OFFICE WHOLEBUILDING - MD OFFICE C END_A - STORY GROUND OFFICE WHOLEBUILDING - MD OFFICE LIGHTS,OFFICEMEDIUM BLDG_LIGHT_SCH_2013,ZONE OFFICE WHOLEBUILDING - MD OFFICE C END_A - STORY GROUND,20.90,1.1,177.750,8.503,158.000,0.000,0.700,0.200,0.100,1.000,General,0.000,177.750
 Lights Internal Gains Nominal, OFFICE WHOLEBUILDING - MD OFFICE B  - STORY GROUND OFFICE WHOLEBUILDING - MD OFFICE LIGHTS,OFFICEMEDIUM BLDG_LIGHT_SCH_2013,ZONE OFFICE WHOLEBUILDING - MD OFFICE B  - STORY GROUND,103.15,5.6,877.150,8.503,158.000,0.000,0.700,0.200,0.100,1.000,General,0.000,877.150
 Lights Internal Gains Nominal, OFFICE WHOLEBUILDING - MD OFFICE C  - STORY GROUND OFFICE WHOLEBUILDING - MD OFFICE LIGHTS,OFFICEMEDIUM BLDG_LIGHT_SCH_2013,ZONE OFFICE WHOLEBUILDING - MD OFFICE C  - STORY GROUND,68.27,3.7,580.575,8.503,158.000,0.000,0.700,0.200,0.100,1.000,General,0.000,580.575
 Lights Internal Gains Nominal, OFFICE WHOLEBUILDING - MD OFFICE B END_B - STORY GROUND OFFICE WHOLEBUILDING - MD OFFICE LIGHTS,OFFICEMEDIUM BLDG_LIGHT_SCH_2013,ZONE OFFICE WHOLEBUILDING - MD OFFICE B END_B - STORY GROUND,31.58,1.7,268.550,8.503,158.000,0.000,0.700,0.200,0.100,1.000,General,0.000,268.550
 Lights Internal Gains Nominal, OFFICE WHOLEBUILDING - MD OFFICE C END_B - STORY GROUND OFFICE WHOLEBUILDING - MD OFFICE LIGHTS,OFFICEMEDIUM BLDG_LIGHT_SCH_2013,ZONE OFFICE WHOLEBUILDING - MD OFFICE C END_B - STORY GROUND,20.90,1.1,177.750,8.503,158.000,0.000,0.700,0.200,0.100,1.000,General,0.000,177.750
 Lights Internal Gains Nominal, OFFICE WHOLEBUILDING - MD OFFICE B END_A - STORY TOP OFFICE WHOLEBUILDING - MD OFFICE LIGHTS,OFFICEMEDIUM BLDG_LIGHT_SCH_2013,ZONE OFFICE WHOLEBUILDING - MD OFFICE B END_A - STORY TOP,31.58,1.7,268.550,8.503,158.000,0.000,0.700,0.200,0.100,1.000,General,0.000,268.550
 Lights Internal Gains Nominal, OFFICE WHOLEBUILDING - MD OFFICE A END_A - STORY TOP OFFICE WHOLEBUILDING - MD OFFICE LIGHTS,OFFICEMEDIUM BLDG_LIGHT_SCH_2013,ZONE OFFICE WHOLEBUILDING - MD OFFICE A END_A - STORY TOP,20.90,1.1,177.750,8.503,158.000,0.000,0.700,0.200,0.100,1.000,General,0.000,177.750
 Lights Internal Gains Nominal, OFFICE WHOLEBUILDING - MD OFFICE A  - STORY TOP OFFICE WHOLEBUILDING - MD OFFICE LIGHTS,OFFICEMEDIUM BLDG_LIGHT_SCH_2013,ZONE OFFICE WHOLEBUILDING - MD OFFICE A  - STORY TOP,68.27,3.7,580.575,8.503,158.000,0.000,0.700,0.200,0.100,1.000,General,0.000,580.575
 Lights Internal Gains Nominal, OFFICE WHOLEBUILDING - MD OFFICE A END_B - STORY GROUND OFFICE WHOLEBUILDING - MD OFFICE LIGHTS,OFFICEMEDIUM BLDG_LIGHT_SCH_2013,ZONE OFFICE WHOLEBUILDING - MD OFFICE A END_B - STORY GROUND,20.90,1.1,177.750,8.503,158.000,0.000,0.700,0.200,0.100,1.000,General,0.000,177.750
 Lights Internal Gains Nominal, OFFICE WHOLEBUILDING - MD OFFICE C END_A - STORY TOP OFFICE WHOLEBUILDING - MD OFFICE LIGHTS,OFFICEMEDIUM BLDG_LIGHT_SCH_2013,ZONE OFFICE WHOLEBUILDING - MD OFFICE C END_A - STORY TOP,20.90,1.1,177.750,8.503,158.000,0.000,0.700,0.200,0.100,1.000,General,0.000,177.750
 Lights Internal Gains Nominal, OFFICE WHOLEBUILDING - MD OFFICE B  - STORY TOP OFFICE WHOLEBUILDING - MD OFFICE LIGHTS,OFFICEMEDIUM BLDG_LIGHT_SCH_2013,ZONE OFFICE WHOLEBUILDING - MD OFFICE B  - STORY TOP,103.15,5.6,877.150,8.503,158.000,0.000,0.700,0.200,0.100,1.000,General,0.000,877.150
 Lights Internal Gains Nominal, OFFICE WHOLEBUILDING - MD OFFICE C  - STORY TOP OFFICE WHOLEBUILDING - MD OFFICE LIGHTS,OFFICEMEDIUM BLDG_LIGHT_SCH_2013,ZONE OFFICE WHOLEBUILDING - MD OFFICE C  - STORY TOP,68.27,3.7,580.575,8.503,158.000,0.000,0.700,0.200,0.100,1.000,General,0.000,580.575
 Lights Internal Gains Nominal, OFFICE WHOLEBUILDING - MD OFFICE A END_B - STORY TOP OFFICE WHOLEBUILDING - MD OFFICE LIGHTS,OFFICEMEDIUM BLDG_LIGHT_SCH_2013,ZONE OFFICE WHOLEBUILDING - MD OFFICE A END_B - STORY TOP,20.90,1.1,177.750,8.503,158.000,0.000,0.700,0.200,0.100,1.000,General,0.000,177.750
 Lights Internal Gains Nominal, OFFICE WHOLEBUILDING - MD OFFICE B END_B - STORY TOP OFFICE WHOLEBUILDING - MD OFFICE LIGHTS,OFFICEMEDIUM BLDG_LIGHT_SCH_2013,ZONE OFFICE WHOLEBUILDING - MD OFFICE B END_B - STORY TOP,31.58,1.7,268.550,8.503,158.000,0.000,0.700,0.200,0.100,1.000,General,0.000,268.550
 Lights Internal Gains Nominal, OFFICE WHOLEBUILDING - MD OFFICE A END_A - STORY GROUND OFFICE WHOLEBUILDING - MD OFFICE LIGHTS,OFFICEMEDIUM BLDG_LIGHT_SCH_2013,ZONE OFFICE WHOLEBUILDING - MD OFFICE A END_A - STORY GROUND,20.90,1.1,177.750,8.503,158.000,0.000,0.700,0.200,0.100,1.000,General,0.000,177.750
 Lights Internal Gains Nominal, OFFICE WHOLEBUILDING - MD OFFICE C END_B - STORY TOP OFFICE WHOLEBUILDING - MD OFFICE LIGHTS,OFFICEMEDIUM BLDG_LIGHT_SCH_2013,ZONE OFFICE WHOLEBUILDING - MD OFFICE C END_B - STORY TOP,20.90,1.1,177.750,8.503,158.000,0.000,0.700,0.200,0.100,1.000,General,0.000,177.750
! <ElectricEquipment Internal Gains Nominal>,Name,Schedule Name,Zone Name,Zone Floor Area {m2},# Zone Occupants,Equipment Level {W},Equipment/Floor Area {W/m2},Equipment per person {W/person},Fraction Latent,Fraction Radiant,Fraction Lost,Fraction Convected,End-Use SubCategory,Nominal Minimum Equipment Level {W},Nominal Maximum Equipment Level {W}
 ElectricEquipment Internal Gains Nominal, OFFICE WHOLEBUILDING - MD OFFICE B END_A - STORY GROUND OFFICE WHOLEBUILDING - MD OFFICE ELEC EQUIP,OFFICEMEDIUM BLDG_EQUIP_SCH_2013,ZONE OFFICE WHOLEBUILDING - MD OFFICE B END_A - STORY GROUND,31.58,1.7,254.953,8.073,150.000,0.000,0.500,0.000,0.500,General,0.000,254.953
 ElectricEquipment Internal Gains Nominal, OFFICE WHOLEBUILDING - MD OFFICE A  - STORY GROUND OFFICE WHOLEBUILDING - MD OFFICE ELEC EQUIP,OFFICEMEDIUM BLDG_EQUIP_SCH_2013,ZONE OFFICE WHOLEBUILDING - MD OFFICE A  - STORY GROUND,68.27,3.7,551.179,8.073,150.000,0.000,0.500,0.000,0.500,General,0.000,551.179
 ElectricEquipment Internal Gains Nominal, OFFICE WHOLEBUILDING - MD OFFICE C END_A - STORY GROUND OFFICE WHOLEBUILDING - MD OFFICE ELEC EQUIP,OFFICEMEDIUM BLDG_EQUIP_SCH_2013,ZONE OFFICE WHOLEBUILDING - MD OFFICE C END_A - STORY GROUND,20.90,1.1,168.750,8.073,150.000,0.000,0.500,0.000,0.500,General,0.000,168.750
 ElectricEquipment Internal Gains Nominal, OFFICE WHOLEBUILDING - MD OFFICE B  - STORY GROUND OFFICE WHOLEBUILDING - MD OFFICE ELEC EQUIP,OFFICEMEDIUM BLDG_EQUIP_SCH_2013,ZONE OFFICE WHOLEBUILDING - MD OFFICE B  - STORY GROUND,103.15,5.6,832.737,8.073,150.000,0.000,0.500,0.000,0.500,General,0.000,832.737
 ElectricEquipment Internal Gains Nominal, OFFICE WHOLEBUILDING - MD OFFICE C  - STORY GROUND OFFICE WHOLEBUILDING - MD OFFICE ELEC EQUIP,OFFICEMEDIUM BLDG_EQUIP_SCH_2013,ZONE OFFICE WHOLEBUILDING - MD OFFICE C  - STORY GROUND,68.27,3.7,551.179,8.073,150.000,0.000,0.500,0.000,0.500,General,0.000,551.179
 ElectricEquipment Internal Gains Nominal, OFFICE WHOLEBUILDING - MD OFFICE B END_B - STORY GROUND OFFICE WHOLEBUILDING - MD OFFICE ELEC EQUIP,OFFICEMEDIUM BLDG_EQUIP_SCH_2013,ZONE OFFICE WHOLEBUILDING - MD OFFICE B END_B - STORY GROUND,31.58,1.7,254.953,8.073,150.000,0.000,0.500,0.000,0.500,General,0.000,254.953
 ElectricEquipment Internal Gains Nominal, OFFICE WHOLEBUILDING - MD OFFICE C END_B - STORY GROUND OFFICE WHOLEBUILDING - MD OFFICE ELEC EQUIP,OFFICEMEDIUM BLDG_EQUIP_SCH_2013,ZONE OFFICE WHOLEBUILDING - MD OFFICE C END_B - STORY GROUND,20.90,1.1,168.750,8.073,150.000,0.000,0.500,0.000,0.500,General,0.000,168.750
 ElectricEquipment Internal Gains Nominal, OFFICE WHOLEBUILDING - MD OFFICE B END_A - STORY TOP OFFICE WHOLEBUILDING - MD OFFICE ELEC EQUIP,OFFICEMEDIUM BLDG_EQUIP_SCH_2013,ZONE OFFICE WHOLEBUILDING - MD OFFICE B END_A - STORY TOP,31.58,1.7,254.953,8.073,150.000,0.000,0.500,0.000,0.500,General,0.000,254.953
 ElectricEquipment Internal Gains Nominal, OFFICE WHOLEBUILDING - MD OFFICE A END_A - STORY TOP OFFICE WHOLEBUILDING - MD OFFICE ELEC EQUIP,OFFICEMEDIUM BLDG_EQUIP_SCH_2013,ZONE OFFICE WHOLEBUILDING - MD OFFICE A END_A - STORY TOP,20.90,1.1,168.750,8.073,150.000,0.000,0.500,0.000,0.500,General,0.000,168.750
 ElectricEquipment Internal Gains Nominal, OFFICE WHOLEBUILDING - MD OFFICE A  - STORY TOP OFFICE WHOLEBUILDING - MD OFFICE ELEC EQUIP,OFFICEMEDIUM BLDG_EQUIP_SCH_2013,ZONE OFFICE WHOLEBUILDING - MD OFFICE A  - STORY TOP,68.27,3.7,551.179,8.073,150.000,0.000,0.500,0.000,0.500,General,0.000,551.179
 ElectricEquipment Internal Gains Nominal, OFFICE WHOLEBUILDING - MD OFFICE A END_B - STORY GROUND OFFICE WHOLEBUILDING - MD OFFICE ELEC EQUIP,OFFICEMEDIUM BLDG_EQUIP_SCH_2013,ZONE OFFICE WHOLEBUILDING - MD OFFICE A END_B - STORY GROUND,20.90,1.1,168.750,8.073,150.000,0.000,0.500,0.000,0.500,General,0.000,168.750
 ElectricEquipment Internal Gains Nominal, OFFICE WHOLEBUILDING - MD OFFICE C END_A - STORY TOP OFFICE WHOLEBUILDING - MD OFFICE ELEC EQUIP,OFFICEMEDIUM BLDG_EQUIP_SCH_2013,ZONE OFFICE WHOLEBUILDING - MD OFFICE C END_A - STORY TOP,20.90,1.1,168.750,8.073,150.000,0.000,0.500,0.000,0.500,General,0.000,168.750
 ElectricEquipment Internal Gains Nominal, OFFICE WHOLEBUILDING - MD OFFICE B  - STORY TOP OFFICE WHOLEBUILDING - MD OFFICE ELEC EQUIP,OFFICEMEDIUM BLDG_EQUIP_SCH_2013,ZONE OFFICE WHOLEBUILDING - MD OFFICE B  - STORY TOP,103.15,5.6,832.737,8.073,150.000,0.000,0.500,0.000,0.500,General,0.000,832.737
 ElectricEquipment Internal Gains Nominal, OFFICE WHOLEBUILDING - MD OFFICE C  - STORY TOP OFFICE WHOLEBUILDING - MD OFFICE ELEC EQUIP,OFFICEMEDIUM BLDG_EQUIP_SCH_2013,ZONE OFFICE WHOLEBUILDING - MD OFFICE C  - STORY TOP,68.27,3.7,551.179,8.073,150.000,0.000,0.500,0.000,0.500,General,0.000,551.179
 ElectricEquipment Internal Gains Nominal, OFFICE WHOLEBUILDING - MD OFFICE A END_B - STORY TOP OFFICE WHOLEBUILDING - MD OFFICE ELEC EQUIP,OFFICEMEDIUM BLDG_EQUIP_SCH_2013,ZONE OFFICE WHOLEBUILDING - MD OFFICE A END_B - STORY TOP,20.90,1.1,168.750,8.073,150.000,0.000,0.500,0.000,0.500,General,0.000,168.750
 ElectricEquipment Internal Gains Nominal, OFFICE WHOLEBUILDING - MD OFFICE B END_B - STORY TOP OFFICE WHOLEBUILDING - MD OFFICE ELEC EQUIP,OFFICEMEDIUM BLDG_EQUIP_SCH_2013,ZONE OFFICE WHOLEBUILDING - MD OFFICE B END_B - STORY TOP,31.58,1.7,254.953,8.073,150.000,0.000,0.500,0.000,0.500,General,0.000,254.953
 ElectricEquipment Internal Gains Nominal, OFFICE WHOLEBUILDING - MD OFFICE A END_A - STORY GROUND OFFICE WHOLEBUILDING - MD OFFICE ELEC EQUIP,OFFICEMEDIUM BLDG_EQUIP_SCH_2013,ZONE OFFICE WHOLEBUILDING - MD OFFICE A END_A - STORY GROUND,20.90,1.1,168.750,8.073,150.000,0.000,0.500,0.000,0.500,General,0.000,168.750
 ElectricEquipment Internal Gains Nominal, OFFICE WHOLEBUILDING - MD OFFICE C END_B - STORY TOP OFFICE WHOLEBUILDING - MD OFFICE ELEC EQUIP,OFFICEMEDIUM BLDG_EQUIP_SCH_2013,ZONE OFFICE WHOLEBUILDING - MD OFFICE C END_B - STORY TOP,20.90,1.1,168.750,8.073,150.000,0.000,0.500,0.000,0.500,General,0.000,168.750
! <Shadowing/Sun Position Calculations Annual Simulations>, Shading Calculation Method, Shading Calculation Update Frequency Method, Shading Calculation Update Frequency {days}, Maximum Figures in Shadow Overlap Calculations {}, Polygon Clipping Algorithm, Pixel Counting Resolution, Sky Diffuse Modeling Algorithm, Output External Shading Calculation Results, Disable Self-Shading Within Shading Zone Groups, Disable Self-Shading From Shading Zone Groups to Other Zones
Shadowing/Sun Position Calculations Annual Simulations,PolygonClipping,Periodic,30,15000,SutherlandHodgman,512,SimpleSkyDiffuseModeling,No,No,No
! <Enclosure/Window Adjacency Daylighting Counts>, Enclosure Name, Number of Exterior Windows, Number of Exterior Windows in Adjacent Enclosures
Enclosure/Window Adjacency Daylighting Counts, OFFICE WHOLEBUILDING - MD OFFICE A  - STORY GROUND,1,0
Enclosure/Window Adjacency Daylighting Counts, OFFICE WHOLEBUILDING - MD OFFICE A  - STORY TOP,1,0
Enclosure/Window Adjacency Daylighting Counts, OFFICE WHOLEBUILDING - MD OFFICE C  - STORY GROUND,1,0
Enclosure/Window Adjacency Daylighting Counts, OFFICE WHOLEBUILDING - MD OFFICE C  - STORY TOP,1,0
! <Enclosure/Window Adjacency Daylighting Matrix>, Enclosure Name, Number of Adjacent Enclosures with Windows,Adjacent Enclosure Names - 1st 100 (max)
Enclosure/Window Adjacency Daylighting Matrix, OFFICE WHOLEBUILDING - MD OFFICE A  - STORY GROUND,0
Enclosure/Window Adjacency Daylighting Matrix, OFFICE WHOLEBUILDING - MD OFFICE A  - STORY TOP,0
Enclosure/Window Adjacency Daylighting Matrix, OFFICE WHOLEBUILDING - MD OFFICE C  - STORY GROUND,0
Enclosure/Window Adjacency Daylighting Matrix, OFFICE WHOLEBUILDING - MD OFFICE C  - STORY TOP,0
! <Water Heater Information>,Type,Name,Volume {m3},Maximum Capacity {W},Standard Rated Recovery Efficiency, Standard Rated Energy Factor
! <ZoneInfiltration Airflow Stats Nominal>,Name,Schedule Name,Zone Name, Zone Floor Area {m2}, # Zone Occupants,Design Volume Flow Rate {m3/s},Volume Flow Rate/Floor Area {m3/s-m2},Volume Flow Rate/Exterior Surface Area {m3/s-m2},ACH - Air Changes per Hour,Equation A - Constant Term Coefficient {},Equation B - Temperature Term Coefficient {1/C},Equation C - Velocity Term Coefficient {s/m}, Equation D - Velocity Squared Term Coefficient {s2/m2}
 ZoneInfiltration Airflow Stats Nominal, OFFICE WHOLEBUILDING - MD OFFICE A  - STORY GROUND INFILTRATION,ALWAYS ON DISCRETE,ZONE OFFICE WHOLEBUILDING - MD OFFICE A  - STORY GROUND,68.27,3.7,6.741E-002,9.873E-004,5.696E-004,0.448,0.000,0.000,0.224,0.000
 ZoneInfiltration Airflow Stats Nominal, OFFICE WHOLEBUILDING - MD OFFICE A  - STORY TOP INFILTRATION,ALWAYS ON DISCRETE,ZONE OFFICE WHOLEBUILDING - MD OFFICE A  - STORY TOP,68.27,3.7,6.741E-002,9.873E-004,3.612E-004,0.448,0.000,0.000,0.224,0.000
 ZoneInfiltration Airflow Stats Nominal, OFFICE WHOLEBUILDING - MD OFFICE A END_A - STORY GROUND INFILTRATION,ALWAYS ON DISCRETE,ZONE OFFICE WHOLEBUILDING - MD OFFICE A END_A - STORY GROUND,20.90,1.1,4.127E-002,1.975E-003,5.696E-004,0.897,0.000,0.000,0.224,0.000
 ZoneInfiltration Airflow Stats Nominal, OFFICE WHOLEBUILDING - MD OFFICE A END_A - STORY TOP INFILTRATION,ALWAYS ON DISCRETE,ZONE OFFICE WHOLEBUILDING - MD OFFICE A END_A - STORY TOP,20.90,1.1,4.127E-002,1.975E-003,4.421E-004,0.897,0.000,0.000,0.224,0.000
 ZoneInfiltration Airflow Stats Nominal, OFFICE WHOLEBUILDING - MD OFFICE A END_B - STORY GROUND INFILTRATION,ALWAYS ON DISCRETE,ZONE OFFICE WHOLEBUILDING - MD OFFICE A END_B - STORY GROUND,20.90,1.1,4.127E-002,1.975E-003,5.696E-004,0.897,0.000,0.000,0.224,0.000
 ZoneInfiltration Airflow Stats Nominal, OFFICE WHOLEBUILDING - MD OFFICE A END_B - STORY TOP INFILTRATION,ALWAYS ON DISCRETE,ZONE OFFICE WHOLEBUILDING - MD OFFICE A END_B - STORY TOP,20.90,1.1,4.127E-002,1.975E-003,4.421E-004,0.897,0.000,0.000,0.224,0.000
 ZoneInfiltration Airflow Stats Nominal, OFFICE WHOLEBUILDING - MD OFFICE B END_A - STORY GROUND INFILTRATION,ALWAYS ON DISCRETE,ZONE OFFICE WHOLEBUILDING - MD OFFICE B END_A - STORY GROUND,31.58,1.7,3.118E-002,9.873E-004,5.696E-004,0.448,0.000,0.000,0.224,0.000
 ZoneInfiltration Airflow Stats Nominal, OFFICE WHOLEBUILDING - MD OFFICE B END_A - STORY TOP INFILTRATION,ALWAYS ON DISCRETE,ZONE OFFICE WHOLEBUILDING - MD OFFICE B END_A - STORY TOP,31.58,1.7,3.118E-002,9.873E-004,3.612E-004,0.448,0.000,0.000,0.224,0.000
 ZoneInfiltration Airflow Stats Nominal, OFFICE WHOLEBUILDING - MD OFFICE B END_B - STORY GROUND INFILTRATION,ALWAYS ON DISCRETE,ZONE OFFICE WHOLEBUILDING - MD OFFICE B END_B - STORY GROUND,31.58,1.7,3.118E-002,9.873E-004,5.696E-004,0.448,0.000,0.000,0.224,0.000
 ZoneInfiltration Airflow Stats Nominal, OFFICE WHOLEBUILDING - MD OFFICE B END_B - STORY TOP INFILTRATION,ALWAYS ON DISCRETE,ZONE OFFICE WHOLEBUILDING - MD OFFICE B END_B - STORY TOP,31.58,1.7,3.118E-002,9.873E-004,3.612E-004,0.448,0.000,0.000,0.224,0.000
 ZoneInfiltration Airflow Stats Nominal, OFFICE WHOLEBUILDING - MD OFFICE C  - STORY GROUND INFILTRATION,ALWAYS ON DISCRETE,ZONE OFFICE WHOLEBUILDING - MD OFFICE C  - STORY GROUND,68.27,3.7,6.741E-002,9.873E-004,5.696E-004,0.448,0.000,0.000,0.224,0.000
 ZoneInfiltration Airflow Stats Nominal, OFFICE WHOLEBUILDING - MD OFFICE C  - STORY TOP INFILTRATION,ALWAYS ON DISCRETE,ZONE OFFICE WHOLEBUILDING - MD OFFICE C  - STORY TOP,68.27,3.7,6.741E-002,9.873E-004,3.612E-004,0.448,0.000,0.000,0.224,0.000
 ZoneInfiltration Airflow Stats Nominal, OFFICE WHOLEBUILDING - MD OFFICE C END_A - STORY GROUND INFILTRATION,ALWAYS ON DISCRETE,ZONE OFFICE WHOLEBUILDING - MD OFFICE C END_A - STORY GROUND,20.90,1.1,4.127E-002,1.975E-003,5.696E-004,0.897,0.000,0.000,0.224,0.000
 ZoneInfiltration Airflow Stats Nominal, OFFICE WHOLEBUILDING - MD OFFICE C END_A - STORY TOP INFILTRATION,ALWAYS ON DISCRETE,ZONE OFFICE WHOLEBUILDING - MD OFFICE C END_A - STORY TOP,20.90,1.1,4.127E-002,1.975E-003,4.421E-004,0.897,0.000,0.000,0.224,0.000
 ZoneInfiltration Airflow Stats Nominal, OFFICE WHOLEBUILDING - MD OFFICE C END_B - STORY GROUND INFILTRATION,ALWAYS ON DISCRETE,ZONE OFFICE WHOLEBUILDING - MD OFFICE C END_B - STORY GROUND,20.90,1.1,4.127E-002,1.975E-003,5.696E-004,0.897,0.000,0.000,0.224,0.000
 ZoneInfiltration Airflow Stats Nominal, OFFICE WHOLEBUILDING - MD OFFICE C END_B - STORY TOP INFILTRATION,ALWAYS ON DISCRETE,ZONE OFFICE WHOLEBUILDING - MD OFFICE C END_B - STORY TOP,20.90,1.1,4.127E-002,1.975E-003,4.421E-004,0.897,0.000,0.000,0.224,0.000
! <AirFlow Model>, Simple
 AirFlow Model, Simple
! <RoomAir Model>, Zone Name, Mixing/Mundt/UCSDDV/UCSDCV/UCSDUFI/UCSDUFE/User Defined
RoomAir Model,ZONE OFFICE WHOLEBUILDING - MD OFFICE A  - STORY GROUND,Mixing/Well-Stirred
RoomAir Model,ZONE OFFICE WHOLEBUILDING - MD OFFICE A  - STORY TOP,Mixing/Well-Stirred
RoomAir Model,ZONE OFFICE WHOLEBUILDING - MD OFFICE A END_A - STORY GROUND,Mixing/Well-Stirred
RoomAir Model,ZONE OFFICE WHOLEBUILDING - MD OFFICE A END_A - STORY TOP,Mixing/Well-Stirred
RoomAir Model,ZONE OFFICE WHOLEBUILDING - MD OFFICE A END_B - STORY GROUND,Mixing/Well-Stirred
RoomAir Model,ZONE OFFICE WHOLEBUILDING - MD OFFICE A END_B - STORY TOP,Mixing/Well-Stirred
RoomAir Model,ZONE OFFICE WHOLEBUILDING - MD OFFICE B  - STORY GROUND,Mixing/Well-Stirred
RoomAir Model,ZONE OFFICE WHOLEBUILDING - MD OFFICE B  - STORY TOP,Mixing/Well-Stirred
RoomAir Model,ZONE OFFICE WHOLEBUILDING - MD OFFICE B END_A - STORY GROUND,Mixing/Well-Stirred
RoomAir Model,ZONE OFFICE WHOLEBUILDING - MD OFFICE B END_A - STORY TOP,Mixing/Well-Stirred
RoomAir Model,ZONE OFFICE WHOLEBUILDING - MD OFFICE B END_B - STORY GROUND,Mixing/Well-Stirred
RoomAir Model,ZONE OFFICE WHOLEBUILDING - MD OFFICE B END_B - STORY TOP,Mixing/Well-Stirred
RoomAir Model,ZONE OFFICE WHOLEBUILDING - MD OFFICE C  - STORY GROUND,Mixing/Well-Stirred
RoomAir Model,ZONE OFFICE WHOLEBUILDING - MD OFFICE C  - STORY TOP,Mixing/Well-Stirred
RoomAir Model,ZONE OFFICE WHOLEBUILDING - MD OFFICE C END_A - STORY GROUND,Mixing/Well-Stirred
RoomAir Model,ZONE OFFICE WHOLEBUILDING - MD OFFICE C END_A - STORY TOP,Mixing/Well-Stirred
RoomAir Model,ZONE OFFICE WHOLEBUILDING - MD OFFICE C END_B - STORY GROUND,Mixing/Well-Stirred
RoomAir Model,ZONE OFFICE WHOLEBUILDING - MD OFFICE C END_B - STORY TOP,Mixing/Well-Stirred
! <AirflowNetwork Model:Control>, No Multizone or Distribution/Multizone with Distribution/Multizone without Distribution/Multizone with Distribution only during Fan Operation
AirflowNetwork Model:Control,NoMultizoneOrDistribution
! <Zone Volume Capacitance Multiplier>, Sensible Heat Capacity Multiplier, Moisture Capacity Multiplier, Carbon Dioxide Capacity Multiplier, Generic Contaminant Capacity Multiplier
Zone Volume Capacitance Multiplier,   1.000 ,   1.000,   1.000,   1.000
! <Load Timesteps in Zone Design Calculation Averaging Window>, Value
 Load Timesteps in Zone Design Calculation Averaging Window,    6
! <Heating Sizing Factor Information>, Sizing Factor ID, Value
 Heating Sizing Factor Information, Global,   1.2500    
 Heating Sizing Factor Information, Zone ZONE OFFICE WHOLEBUILDING - MD OFFICE A  - STORY GROUND,   1.2500    
 Heating Sizing Factor Information, Zone ZONE OFFICE WHOLEBUILDING - MD OFFICE A  - STORY TOP,   1.2500    
 Heating Sizing Factor Information, Zone ZONE OFFICE WHOLEBUILDING - MD OFFICE A END_A - STORY GROUND,   1.2500    
 Heating Sizing Factor Information, Zone ZONE OFFICE WHOLEBUILDING - MD OFFICE A END_A - STORY TOP,   1.2500    
 Heating Sizing Factor Information, Zone ZONE OFFICE WHOLEBUILDING - MD OFFICE A END_B - STORY GROUND,   1.2500    
 Heating Sizing Factor Information, Zone ZONE OFFICE WHOLEBUILDING - MD OFFICE A END_B - STORY TOP,   1.2500    
 Heating Sizing Factor Information, Zone ZONE OFFICE WHOLEBUILDING - MD OFFICE B  - STORY GROUND,   1.2500    
 Heating Sizing Factor Information, Zone ZONE OFFICE WHOLEBUILDING - MD OFFICE B  - STORY TOP,   1.2500    
 Heating Sizing Factor Information, Zone ZONE OFFICE WHOLEBUILDING - MD OFFICE B END_A - STORY GROUND,   1.2500    
 Heating Sizing Factor Information, Zone ZONE OFFICE WHOLEBUILDING - MD OFFICE B END_A - STORY TOP,   1.2500    
 Heating Sizing Factor Information, Zone ZONE OFFICE WHOLEBUILDING - MD OFFICE B END_B - STORY GROUND,   1.2500    
 Heating Sizing Factor Information, Zone ZONE OFFICE WHOLEBUILDING - MD OFFICE B END_B - STORY TOP,   1.2500    
 Heating Sizing Factor Information, Zone ZONE OFFICE WHOLEBUILDING - MD OFFICE C  - STORY GROUND,   1.2500    
 Heating Sizing Factor Information, Zone ZONE OFFICE WHOLEBUILDING - MD OFFICE C  - STORY TOP,   1.2500    
 Heating Sizing Factor Information, Zone ZONE OFFICE WHOLEBUILDING - MD OFFICE C END_A - STORY GROUND,   1.2500    
 Heating Sizing Factor Information, Zone ZONE OFFICE WHOLEBUILDING - MD OFFICE C END_A - STORY TOP,   1.2500    
 Heating Sizing Factor Information, Zone ZONE OFFICE WHOLEBUILDING - MD OFFICE C END_B - STORY GROUND,   1.2500    
 Heating Sizing Factor Information, Zone ZONE OFFICE WHOLEBUILDING - MD OFFICE C END_B - STORY TOP,   1.2500    
! <Cooling Sizing Factor Information>, Sizing Factor ID, Value
 Cooling Sizing Factor Information, Global,   1.1500    
 Cooling Sizing Factor Information, Zone ZONE OFFICE WHOLEBUILDING - MD OFFICE A  - STORY GROUND,   1.1500    
 Cooling Sizing Factor Information, Zone ZONE OFFICE WHOLEBUILDING - MD OFFICE A  - STORY TOP,   1.1500    
 Cooling Sizing Factor Information, Zone ZONE OFFICE WHOLEBUILDING - MD OFFICE A END_A - STORY GROUND,   1.1500    
 Cooling Sizing Factor Information, Zone ZONE OFFICE WHOLEBUILDING - MD OFFICE A END_A - STORY TOP,   1.1500    
 Cooling Sizing Factor Information, Zone ZONE OFFICE WHOLEBUILDING - MD OFFICE A END_B - STORY GROUND,   1.1500    
 Cooling Sizing Factor Information, Zone ZONE OFFICE WHOLEBUILDING - MD OFFICE A END_B - STORY TOP,   1.1500    
 Cooling Sizing Factor Information, Zone ZONE OFFICE WHOLEBUILDING - MD OFFICE B  - STORY GROUND,   1.1500    
 Cooling Sizing Factor Information, Zone ZONE OFFICE WHOLEBUILDING - MD OFFICE B  - STORY TOP,   1.1500    
 Cooling Sizing Factor Information, Zone ZONE OFFICE WHOLEBUILDING - MD OFFICE B END_A - STORY GROUND,   1.1500    
 Cooling Sizing Factor Information, Zone ZONE OFFICE WHOLEBUILDING - MD OFFICE B END_A - STORY TOP,   1.1500    
 Cooling Sizing Factor Information, Zone ZONE OFFICE WHOLEBUILDING - MD OFFICE B END_B - STORY GROUND,   1.1500    
 Cooling Sizing Factor Information, Zone ZONE OFFICE WHOLEBUILDING - MD OFFICE B END_B - STORY TOP,   1.1500    
 Cooling Sizing Factor Information, Zone ZONE OFFICE WHOLEBUILDING - MD OFFICE C  - STORY GROUND,   1.1500    
 Cooling Sizing Factor Information, Zone ZONE OFFICE WHOLEBUILDING - MD OFFICE C  - STORY TOP,   1.1500    
 Cooling Sizing Factor Information, Zone ZONE OFFICE WHOLEBUILDING - MD OFFICE C END_A - STORY GROUND,   1.1500    
 Cooling Sizing Factor Information, Zone ZONE OFFICE WHOLEBUILDING - MD OFFICE C END_A - STORY TOP,   1.1500    
 Cooling Sizing Factor Information, Zone ZONE OFFICE WHOLEBUILDING - MD OFFICE C END_B - STORY GROUND,   1.1500    
 Cooling Sizing Factor Information, Zone ZONE OFFICE WHOLEBUILDING - MD OFFICE C END_B - STORY TOP,   1.1500    
! <Sky Daylight Factors>, Sky Type, MonthAndDay, Daylighting Control Name, Enclosure Name, Window Name, Reference Point, Daylight Factor
 Sky Daylight Factors,Clear Sky,08/21,ZONE OFFICE WHOLEBUILDING - MD OFFICE A  - STORY GROUND DAYLIGHTINGCONTROLS,OFFICE WHOLEBUILDING - MD OFFICE A  - STORY GROUND,SUB SURFACE 2,OFFICE WHOLEBUILDING - MD OFFICE A  - STORY GROUND DAYLT SENSOR 1,9.3670E-002
 Sky Daylight Factors,Clear Sky,08/21,ZONE OFFICE WHOLEBUILDING - MD OFFICE A  - STORY GROUND DAYLIGHTINGCONTROLS,OFFICE WHOLEBUILDING - MD OFFICE A  - STORY GROUND,SUB SURFACE 2,OFFICE WHOLEBUILDING - MD OFFICE A  - STORY GROUND DAYLT SENSOR 2,3.8583E-002
 Sky Daylight Factors,Clear Turbid Sky,08/21,ZONE OFFICE WHOLEBUILDING - MD OFFICE A  - STORY GROUND DAYLIGHTINGCONTROLS,OFFICE WHOLEBUILDING - MD OFFICE A  - STORY GROUND,SUB SURFACE 2,OFFICE WHOLEBUILDING - MD OFFICE A  - STORY GROUND DAYLT SENSOR 1,0.1002
 Sky Daylight Factors,Clear Turbid Sky,08/21,ZONE OFFICE WHOLEBUILDING - MD OFFICE A  - STORY GROUND DAYLIGHTINGCONTROLS,OFFICE WHOLEBUILDING - MD OFFICE A  - STORY GROUND,SUB SURFACE 2,OFFICE WHOLEBUILDING - MD OFFICE A  - STORY GROUND DAYLT SENSOR 2,3.9558E-002
 Sky Daylight Factors,Intermediate Sky,08/21,ZONE OFFICE WHOLEBUILDING - MD OFFICE A  - STORY GROUND DAYLIGHTINGCONTROLS,OFFICE WHOLEBUILDING - MD OFFICE A  - STORY GROUND,SUB SURFACE 2,OFFICE WHOLEBUILDING - MD OFFICE A  - STORY GROUND DAYLT SENSOR 1,7.5615E-002
 Sky Daylight Factors,Intermediate Sky,08/21,ZONE OFFICE WHOLEBUILDING - MD OFFICE A  - STORY GROUND DAYLIGHTINGCONTROLS,OFFICE WHOLEBUILDING - MD OFFICE A  - STORY GROUND,SUB SURFACE 2,OFFICE WHOLEBUILDING - MD OFFICE A  - STORY GROUND DAYLT SENSOR 2,2.8006E-002
 Sky Daylight Factors,Overcast Sky,08/21,ZONE OFFICE WHOLEBUILDING - MD OFFICE A  - STORY GROUND DAYLIGHTINGCONTROLS,OFFICE WHOLEBUILDING - MD OFFICE A  - STORY GROUND,SUB SURFACE 2,OFFICE WHOLEBUILDING - MD OFFICE A  - STORY GROUND DAYLT SENSOR 1,3.4657E-002
 Sky Daylight Factors,Overcast Sky,08/21,ZONE OFFICE WHOLEBUILDING - MD OFFICE A  - STORY GROUND DAYLIGHTINGCONTROLS,OFFICE WHOLEBUILDING - MD OFFICE A  - STORY GROUND,SUB SURFACE 2,OFFICE WHOLEBUILDING - MD OFFICE A  - STORY GROUND DAYLT SENSOR 2,1.2656E-002
 Sky Daylight Factors,Clear Sky,08/21,ZONE OFFICE WHOLEBUILDING - MD OFFICE A  - STORY TOP DAYLIGHTINGCONTROLS,OFFICE WHOLEBUILDING - MD OFFICE A  - STORY TOP,SUB SURFACE 13,OFFICE WHOLEBUILDING - MD OFFICE A  - STORY TOP DAYLT SENSOR 1,9.2087E-002
 Sky Daylight Factors,Clear Sky,08/21,ZONE OFFICE WHOLEBUILDING - MD OFFICE A  - STORY TOP DAYLIGHTINGCONTROLS,OFFICE WHOLEBUILDING - MD OFFICE A  - STORY TOP,SUB SURFACE 13,OFFICE WHOLEBUILDING - MD OFFICE A  - STORY TOP DAYLT SENSOR 2,3.7001E-002
 Sky Daylight Factors,Clear Turbid Sky,08/21,ZONE OFFICE WHOLEBUILDING - MD OFFICE A  - STORY TOP DAYLIGHTINGCONTROLS,OFFICE WHOLEBUILDING - MD OFFICE A  - STORY TOP,SUB SURFACE 13,OFFICE WHOLEBUILDING - MD OFFICE A  - STORY TOP DAYLT SENSOR 1,9.8524E-002
 Sky Daylight Factors,Clear Turbid Sky,08/21,ZONE OFFICE WHOLEBUILDING - MD OFFICE A  - STORY TOP DAYLIGHTINGCONTROLS,OFFICE WHOLEBUILDING - MD OFFICE A  - STORY TOP,SUB SURFACE 13,OFFICE WHOLEBUILDING - MD OFFICE A  - STORY TOP DAYLT SENSOR 2,3.7892E-002
 Sky Daylight Factors,Intermediate Sky,08/21,ZONE OFFICE WHOLEBUILDING - MD OFFICE A  - STORY TOP DAYLIGHTINGCONTROLS,OFFICE WHOLEBUILDING - MD OFFICE A  - STORY TOP,SUB SURFACE 13,OFFICE WHOLEBUILDING - MD OFFICE A  - STORY TOP DAYLT SENSOR 1,7.4364E-002
 Sky Daylight Factors,Intermediate Sky,08/21,ZONE OFFICE WHOLEBUILDING - MD OFFICE A  - STORY TOP DAYLIGHTINGCONTROLS,OFFICE WHOLEBUILDING - MD OFFICE A  - STORY TOP,SUB SURFACE 13,OFFICE WHOLEBUILDING - MD OFFICE A  - STORY TOP DAYLT SENSOR 2,2.6755E-002
 Sky Daylight Factors,Overcast Sky,08/21,ZONE OFFICE WHOLEBUILDING - MD OFFICE A  - STORY TOP DAYLIGHTINGCONTROLS,OFFICE WHOLEBUILDING - MD OFFICE A  - STORY TOP,SUB SURFACE 13,OFFICE WHOLEBUILDING - MD OFFICE A  - STORY TOP DAYLT SENSOR 1,3.4035E-002
 Sky Daylight Factors,Overcast Sky,08/21,ZONE OFFICE WHOLEBUILDING - MD OFFICE A  - STORY TOP DAYLIGHTINGCONTROLS,OFFICE WHOLEBUILDING - MD OFFICE A  - STORY TOP,SUB SURFACE 13,OFFICE WHOLEBUILDING - MD OFFICE A  - STORY TOP DAYLT SENSOR 2,1.2034E-002
 Sky Daylight Factors,Clear Sky,08/21,ZONE OFFICE WHOLEBUILDING - MD OFFICE C  - STORY GROUND DAYLIGHTINGCONTROLS,OFFICE WHOLEBUILDING - MD OFFICE C  - STORY GROUND,SUB SURFACE 12,OFFICE WHOLEBUILDING - MD OFFICE C  - STORY GROUND DAYLT SENSOR 1,3.1040E-002
 Sky Daylight Factors,Clear Sky,08/21,ZONE OFFICE WHOLEBUILDING - MD OFFICE C  - STORY GROUND DAYLIGHTINGCONTROLS,OFFICE WHOLEBUILDING - MD OFFICE C  - STORY GROUND,SUB SURFACE 12,OFFICE WHOLEBUILDING - MD OFFICE C  - STORY GROUND DAYLT SENSOR 2,1.6347E-002
 Sky Daylight Factors,Clear Turbid Sky,08/21,ZONE OFFICE WHOLEBUILDING - MD OFFICE C  - STORY GROUND DAYLIGHTINGCONTROLS,OFFICE WHOLEBUILDING - MD OFFICE C  - STORY GROUND,SUB SURFACE 12,OFFICE WHOLEBUILDING - MD OFFICE C  - STORY GROUND DAYLT SENSOR 1,2.4182E-002
 Sky Daylight Factors,Clear Turbid Sky,08/21,ZONE OFFICE WHOLEBUILDING - MD OFFICE C  - STORY GROUND DAYLIGHTINGCONTROLS,OFFICE WHOLEBUILDING - MD OFFICE C  - STORY GROUND,SUB SURFACE 12,OFFICE WHOLEBUILDING - MD OFFICE C  - STORY GROUND DAYLT SENSOR 2,1.2602E-002
 Sky Daylight Factors,Intermediate Sky,08/21,ZONE OFFICE WHOLEBUILDING - MD OFFICE C  - STORY GROUND DAYLIGHTINGCONTROLS,OFFICE WHOLEBUILDING - MD OFFICE C  - STORY GROUND,SUB SURFACE 12,OFFICE WHOLEBUILDING - MD OFFICE C  - STORY GROUND DAYLT SENSOR 1,2.1183E-002
 Sky Daylight Factors,Intermediate Sky,08/21,ZONE OFFICE WHOLEBUILDING - MD OFFICE C  - STORY GROUND DAYLIGHTINGCONTROLS,OFFICE WHOLEBUILDING - MD OFFICE C  - STORY GROUND,SUB SURFACE 12,OFFICE WHOLEBUILDING - MD OFFICE C  - STORY GROUND DAYLT SENSOR 2,8.6513E-003
 Sky Daylight Factors,Overcast Sky,08/21,ZONE OFFICE WHOLEBUILDING - MD OFFICE C  - STORY GROUND DAYLIGHTINGCONTROLS,OFFICE WHOLEBUILDING - MD OFFICE C  - STORY GROUND,SUB SURFACE 12,OFFICE WHOLEBUILDING - MD OFFICE C  - STORY GROUND DAYLT SENSOR 1,3.4657E-002
 Sky Daylight Factors,Overcast Sky,08/21,ZONE OFFICE WHOLEBUILDING - MD OFFICE C  - STORY GROUND DAYLIGHTINGCONTROLS,OFFICE WHOLEBUILDING - MD OFFICE C  - STORY GROUND,SUB SURFACE 12,OFFICE WHOLEBUILDING - MD OFFICE C  - STORY GROUND DAYLT SENSOR 2,1.2656E-002
 Sky Daylight Factors,Clear Sky,08/21,ZONE OFFICE WHOLEBUILDING - MD OFFICE C  - STORY TOP DAYLIGHTINGCONTROLS,OFFICE WHOLEBUILDING - MD OFFICE C  - STORY TOP,SUB SURFACE 14,OFFICE WHOLEBUILDING - MD OFFICE C  - STORY TOP DAYLT SENSOR 1,3.0447E-002
 Sky Daylight Factors,Clear Sky,08/21,ZONE OFFICE WHOLEBUILDING - MD OFFICE C  - STORY TOP DAYLIGHTINGCONTROLS,OFFICE WHOLEBUILDING - MD OFFICE C  - STORY TOP,SUB SURFACE 14,OFFICE WHOLEBUILDING - MD OFFICE C  - STORY TOP DAYLT SENSOR 2,1.5753E-002
 Sky Daylight Factors,Clear Turbid Sky,08/21,ZONE OFFICE WHOLEBUILDING - MD OFFICE C  - STORY TOP DAYLIGHTINGCONTROLS,OFFICE WHOLEBUILDING - MD OFFICE C  - STORY TOP,SUB SURFACE 14,OFFICE WHOLEBUILDING - MD OFFICE C  - STORY TOP DAYLT SENSOR 1,2.3718E-002
 Sky Daylight Factors,Clear Turbid Sky,08/21,ZONE OFFICE WHOLEBUILDING - MD OFFICE C  - STORY TOP DAYLIGHTINGCONTROLS,OFFICE WHOLEBUILDING - MD OFFICE C  - STORY TOP,SUB SURFACE 14,OFFICE WHOLEBUILDING - MD OFFICE C  - STORY TOP DAYLT SENSOR 2,1.2138E-002
 Sky Daylight Factors,Intermediate Sky,08/21,ZONE OFFICE WHOLEBUILDING - MD OFFICE C  - STORY TOP DAYLIGHTINGCONTROLS,OFFICE WHOLEBUILDING - MD OFFICE C  - STORY TOP,SUB SURFACE 14,OFFICE WHOLEBUILDING - MD OFFICE C  - STORY TOP DAYLT SENSOR 1,2.0798E-002
 Sky Daylight Factors,Intermediate Sky,08/21,ZONE OFFICE WHOLEBUILDING - MD OFFICE C  - STORY TOP DAYLIGHTINGCONTROLS,OFFICE WHOLEBUILDING - MD OFFICE C  - STORY TOP,SUB SURFACE 14,OFFICE WHOLEBUILDING - MD OFFICE C  - STORY TOP DAYLT SENSOR 2,8.2664E-003
 Sky Daylight Factors,Overcast Sky,08/21,ZONE OFFICE WHOLEBUILDING - MD OFFICE C  - STORY TOP DAYLIGHTINGCONTROLS,OFFICE WHOLEBUILDING - MD OFFICE C  - STORY TOP,SUB SURFACE 14,OFFICE WHOLEBUILDING - MD OFFICE C  - STORY TOP DAYLT SENSOR 1,3.4035E-002
 Sky Daylight Factors,Overcast Sky,08/21,ZONE OFFICE WHOLEBUILDING - MD OFFICE C  - STORY TOP DAYLIGHTINGCONTROLS,OFFICE WHOLEBUILDING - MD OFFICE C  - STORY TOP,SUB SURFACE 14,OFFICE WHOLEBUILDING - MD OFFICE C  - STORY TOP DAYLT SENSOR 2,1.2034E-002
! <Zone Sizing Information>, Zone Name, Load Type, Calc Des Load {W}, User Des Load {W}, Calc Des Air Flow Rate {m3/s}, User Des Air Flow Rate {m3/s}, Design Day Name, Date/Time of Peak, Temperature at Peak {C}, Humidity Ratio at Peak {kgWater/kgDryAir}, Floor Area {m2}, # Occupants, Calc Outdoor Air Flow Rate {m3/s}, Calc DOAS Heat Addition Rate {W}
 Zone Sizing Information, ZONE OFFICE WHOLEBUILDING - MD OFFICE A  - STORY GROUND, Cooling, 4476.06224, 5147.47157, 0.32470, 0.37341, KODIAK AUGUST .4% CONDNS DB=>MCWB, 8/21 15:00:00, 22.60000, 8.70767E-003, 68.27491, 3.67453, 2.94811E-002, 0.00000
 Zone Sizing Information, ZONE OFFICE WHOLEBUILDING - MD OFFICE A  - STORY GROUND, Heating, 5797.09098, 7246.36372, 0.16202, 0.20253, KODIAK ANN HTG 99.6% CONDNS DB, 1/21 08:00:00, -12.80000, 1.24844E-003, 68.27491, 3.67453, 2.94811E-002, 0.00000
 Zone Sizing Information, ZONE OFFICE WHOLEBUILDING - MD OFFICE A  - STORY TOP, Cooling, 5622.80357, 6466.22411, 0.40789, 0.46907, KODIAK AUGUST .4% CONDNS DB=>MCWB, 8/21 14:10:00, 22.60000, 8.70767E-003, 68.27491, 3.67453, 2.94811E-002, 0.00000
 Zone Sizing Information, ZONE OFFICE WHOLEBUILDING - MD OFFICE A  - STORY TOP, Heating, 6441.37218, 8051.71523, 0.17135, 0.21419, KODIAK ANN HTG 99.6% CONDNS DB, 1/21 07:00:00, -12.80000, 1.24844E-003, 68.27491, 3.67453, 2.94811E-002, 0.00000
 Zone Sizing Information, ZONE OFFICE WHOLEBUILDING - MD OFFICE A END_A - STORY GROUND, Cooling, 2077.55044, 2389.18300, 0.15071, 0.17332, KODIAK AUGUST .4% CONDNS DB=>MCWB, 8/21 17:00:00, 21.71800, 8.70630E-003, 20.90318, 1.12500, 9.02599E-003, 0.00000
 Zone Sizing Information, ZONE OFFICE WHOLEBUILDING - MD OFFICE A END_A - STORY GROUND, Heating, 3199.49895, 3999.37368, 8.95472E-002, 0.11193, KODIAK ANN HTG 99.6% CONDNS DB, 1/21 08:00:00, -12.80000, 1.24844E-003, 20.90318, 1.12500, 9.02599E-003, 0.00000
 Zone Sizing Information, ZONE OFFICE WHOLEBUILDING - MD OFFICE A END_A - STORY TOP, Cooling, 2478.32537, 2850.07417, 0.17978, 0.20675, KODIAK AUGUST .4% CONDNS DB=>MCWB, 8/21 16:40:00, 21.88600, 8.70656E-003, 20.90318, 1.12500, 9.02599E-003, 0.00000
 Zone Sizing Information, ZONE OFFICE WHOLEBUILDING - MD OFFICE A END_A - STORY TOP, Heating, 3445.30909, 4306.63636, 9.18589E-002, 0.11482, KODIAK ANN HTG 99.6% CONDNS DB, 1/21 07:00:00, -12.80000, 1.24844E-003, 20.90318, 1.12500, 9.02599E-003, 0.00000
 Zone Sizing Information, ZONE OFFICE WHOLEBUILDING - MD OFFICE A END_B - STORY GROUND, Cooling, 1984.52437, 2282.20303, 0.14396, 0.16555, KODIAK JULY .4% CONDNS DB=>MCWB, 7/21 12:00:00, 23.48500, 8.28382E-003, 20.90318, 1.12500, 9.02599E-003, 0.00000
 Zone Sizing Information, ZONE OFFICE WHOLEBUILDING - MD OFFICE A END_B - STORY GROUND, Heating, 3183.66212, 3979.57765, 8.91031E-002, 0.11138, KODIAK ANN HTG 99.6% CONDNS DB, 1/21 08:00:00, -12.80000, 1.24844E-003, 20.90318, 1.12500, 9.02599E-003, 0.00000
 Zone Sizing Information, ZONE OFFICE WHOLEBUILDING - MD OFFICE A END_B - STORY TOP, Cooling, 2414.86612, 2777.09604, 0.17518, 0.20145, KODIAK JULY .4% CONDNS DB=>MCWB, 7/21 11:40:00, 23.30167, 8.28354E-003, 20.90318, 1.12500, 9.02599E-003, 0.00000
 Zone Sizing Information, ZONE OFFICE WHOLEBUILDING - MD OFFICE A END_B - STORY TOP, Heating, 3427.08377, 4283.85471, 9.13715E-002, 0.11421, KODIAK ANN HTG 99.6% CONDNS DB, 1/21 07:00:00, -12.80000, 1.24844E-003, 20.90318, 1.12500, 9.02599E-003, 0.00000
 Zone Sizing Information, ZONE OFFICE WHOLEBUILDING - MD OFFICE B  - STORY GROUND, Cooling, 3312.32388, 3809.17246, 0.23641, 0.27187, KODIAK JULY .4% CONDNS DB=>MCWB, 7/21 08:00:00, 20.13000, 8.27867E-003, 103.15178, 5.55158, 4.45409E-002, 0.00000
 Zone Sizing Information, ZONE OFFICE WHOLEBUILDING - MD OFFICE B  - STORY GROUND, Heating, 3114.03282, 3892.54102, 8.65217E-002, 0.10815, KODIAK ANN HTG 99.6% CONDNS DB, 1/21 08:00:00, -12.80000, 1.24844E-003, 103.15178, 5.55158, 4.45409E-002, 0.00000
 Zone Sizing Information, ZONE OFFICE WHOLEBUILDING - MD OFFICE B  - STORY TOP, Cooling, 3366.60109, 3871.59126, 0.24029, 0.27633, KODIAK JULY .4% CONDNS DB=>MCWB, 7/21 08:00:00, 20.13000, 8.27867E-003, 103.15178, 5.55158, 4.45409E-002, 0.00000
 Zone Sizing Information, ZONE OFFICE WHOLEBUILDING - MD OFFICE B  - STORY TOP, Heating, 4016.45142, 5020.56427, 0.10596, 0.13246, KODIAK ANN HTG 99.6% CONDNS DB, 1/21 07:00:00, -12.80000, 1.24844E-003, 103.15178, 5.55158, 4.45409E-002, 0.00000
 Zone Sizing Information, ZONE OFFICE WHOLEBUILDING - MD OFFICE B END_A - STORY GROUND, Cooling, 2320.43435, 2668.49950, 0.16833, 0.19358, KODIAK JULY .4% CONDNS DB=>MCWB, 7/21 19:50:00, 21.55083, 8.28085E-003, 31.58115, 1.69968, 1.36367E-002, 0.00000
 Zone Sizing Information, ZONE OFFICE WHOLEBUILDING - MD OFFICE B END_A - STORY GROUND, Heating, 2995.76936, 3744.71170, 8.37575E-002, 0.10470, KODIAK ANN HTG 99.6% CONDNS DB, 1/21 08:00:00, -12.80000, 1.24844E-003, 31.58115, 1.69968, 1.36367E-002, 0.00000
 Zone Sizing Information, ZONE OFFICE WHOLEBUILDING - MD OFFICE B END_A - STORY TOP, Cooling, 2947.06258, 3389.12197, 0.21378, 0.24585, KODIAK JULY .4% CONDNS DB=>MCWB, 7/21 18:30:00, 22.46750, 8.28226E-003, 31.58115, 1.69968, 1.36367E-002, 0.00000
 Zone Sizing Information, ZONE OFFICE WHOLEBUILDING - MD OFFICE B END_A - STORY TOP, Heating, 3303.10479, 4128.88099, 8.79030E-002, 0.10988, KODIAK ANN HTG 99.6% CONDNS DB, 1/21 07:00:00, -12.80000, 1.24844E-003, 31.58115, 1.69968, 1.36367E-002, 0.00000
 Zone Sizing Information, ZONE OFFICE WHOLEBUILDING - MD OFFICE B END_B - STORY GROUND, Cooling, 2290.85335, 2634.48135, 0.16618, 0.19111, KODIAK JULY .4% CONDNS DB=>MCWB, 7/21 10:20:00, 22.38500, 8.28213E-003, 31.58115, 1.69968, 1.36367E-002, 0.00000
 Zone Sizing Information, ZONE OFFICE WHOLEBUILDING - MD OFFICE B END_B - STORY GROUND, Heating, 2973.67817, 3717.09772, 8.31381E-002, 0.10392, KODIAK ANN HTG 99.6% CONDNS DB, 1/21 08:00:00, -12.80000, 1.24844E-003, 31.58115, 1.69968, 1.36367E-002, 0.00000
 Zone Sizing Information, ZONE OFFICE WHOLEBUILDING - MD OFFICE B END_B - STORY TOP, Cooling, 2892.29682, 3326.14134, 0.20981, 0.24128, KODIAK JULY .4% CONDNS DB=>MCWB, 7/21 09:10:00, 21.33083, 8.28051E-003, 31.58115, 1.69968, 1.36367E-002, 0.00000
 Zone Sizing Information, ZONE OFFICE WHOLEBUILDING - MD OFFICE B END_B - STORY TOP, Heating, 3277.88093, 4097.35117, 8.72294E-002, 0.10904, KODIAK ANN HTG 99.6% CONDNS DB, 1/21 07:00:00, -12.80000, 1.24844E-003, 31.58115, 1.69968, 1.36367E-002, 0.00000
 Zone Sizing Information, ZONE OFFICE WHOLEBUILDING - MD OFFICE C  - STORY GROUND, Cooling, 2102.37743, 2417.73405, 0.14995, 0.17244, KODIAK JULY .4% CONDNS DB=>MCWB, 7/21 08:00:00, 20.13000, 8.27867E-003, 68.27491, 3.67453, 2.94811E-002, 0.00000
 Zone Sizing Information, ZONE OFFICE WHOLEBUILDING - MD OFFICE C  - STORY GROUND, Heating, 5837.93737, 7297.42172, 0.16317, 0.20396, KODIAK ANN HTG 99.6% CONDNS DB, 1/21 08:00:00, -12.80000, 1.24844E-003, 68.27491, 3.67453, 2.94811E-002, 0.00000
 Zone Sizing Information, ZONE OFFICE WHOLEBUILDING - MD OFFICE C  - STORY TOP, Cooling, 2378.60112, 2735.39129, 0.16983, 0.19531, KODIAK JULY .4% CONDNS DB=>MCWB, 7/21 08:00:00, 20.13000, 8.27867E-003, 68.27491, 3.67453, 2.94811E-002, 0.00000
 Zone Sizing Information, ZONE OFFICE WHOLEBUILDING - MD OFFICE C  - STORY TOP, Heating, 6488.14730, 8110.18413, 0.17260, 0.21575, KODIAK ANN HTG 99.6% CONDNS DB, 1/21 07:00:00, -12.80000, 1.24844E-003, 68.27491, 3.67453, 2.94811E-002, 0.00000
 Zone Sizing Information, ZONE OFFICE WHOLEBUILDING - MD OFFICE C END_A - STORY GROUND, Cooling, 1596.28892, 1835.73226, 0.11580, 0.13317, KODIAK JULY .4% CONDNS DB=>MCWB, 7/21 20:20:00, 21.28500, 8.28044E-003, 20.90318, 1.12500, 9.02599E-003, 0.00000
 Zone Sizing Information, ZONE OFFICE WHOLEBUILDING - MD OFFICE C END_A - STORY GROUND, Heating, 3215.28200, 4019.10250, 8.99899E-002, 0.11249, KODIAK ANN HTG 99.6% CONDNS DB, 1/21 08:00:00, -12.80000, 1.24844E-003, 20.90318, 1.12500, 9.02599E-003, 0.00000
 Zone Sizing Information, ZONE OFFICE WHOLEBUILDING - MD OFFICE C END_A - STORY TOP, Cooling, 2008.46566, 2309.73550, 0.14569, 0.16755, KODIAK JULY .4% CONDNS DB=>MCWB, 7/21 18:20:00, 22.60500, 8.28247E-003, 20.90318, 1.12500, 9.02599E-003, 0.00000
 Zone Sizing Information, ZONE OFFICE WHOLEBUILDING - MD OFFICE C END_A - STORY TOP, Heating, 3463.48161, 4329.35202, 9.23448E-002, 0.11543, KODIAK ANN HTG 99.6% CONDNS DB, 1/21 07:00:00, -12.80000, 1.24844E-003, 20.90318, 1.12500, 9.02599E-003, 0.00000
 Zone Sizing Information, ZONE OFFICE WHOLEBUILDING - MD OFFICE C END_B - STORY GROUND, Cooling, 1499.85062, 1724.82822, 0.10880, 0.12512, KODIAK JULY .4% CONDNS DB=>MCWB, 7/21 10:30:00, 22.52250, 8.28234E-003, 20.90318, 1.12500, 9.02599E-003, 0.00000
 Zone Sizing Information, ZONE OFFICE WHOLEBUILDING - MD OFFICE C END_B - STORY GROUND, Heating, 3199.46422, 3999.33028, 8.95463E-002, 0.11193, KODIAK ANN HTG 99.6% CONDNS DB, 1/21 08:00:00, -12.80000, 1.24844E-003, 20.90318, 1.12500, 9.02599E-003, 0.00000
 Zone Sizing Information, ZONE OFFICE WHOLEBUILDING - MD OFFICE C END_B - STORY TOP, Cooling, 1954.91442, 2248.15159, 0.14055, 0.16163, KODIAK JULY .4% CONDNS DB=>MCWB, 7/21 08:00:00, 20.13000, 8.27867E-003, 20.90318, 1.12500, 9.02599E-003, 0.00000
 Zone Sizing Information, ZONE OFFICE WHOLEBUILDING - MD OFFICE C END_B - STORY TOP, Heating, 3445.28044, 4306.60054, 9.18581E-002, 0.11482, KODIAK ANN HTG 99.6% CONDNS DB, 1/21 07:00:00, -12.80000, 1.24844E-003, 20.90318, 1.12500, 9.02599E-003, 0.00000
! <System Sizing Information>, System Name, Load Type, Peak Load Kind, User Design Capacity, Calc Des Air Flow Rate [m3/s], User Des Air Flow Rate [m3/s], Design Day Name, Date/Time of Peak
 System Sizing Information, ZONE OFFICE WHOLEBUILDING - MD OFFICE A  - STORY GROUND PSZ-AC, Cooling, Sensible, 5017.98, 0.37341, 0.37341, KODIAK AUGUST .4% CONDNS DB=>MCWB, 8/21 05:00:00
 System Sizing Information, ZONE OFFICE WHOLEBUILDING - MD OFFICE A  - STORY GROUND PSZ-AC, Heating, Sensible, 8327.90, 0.20253, 0.20253, KODIAK ANN HTG 99.6% CONDNS DB, 1/21 08:00:00
 System Sizing Information, ZONE OFFICE WHOLEBUILDING - MD OFFICE A  - STORY TOP PSZ-AC, Cooling, Sensible, 6316.34, 0.46907, 0.46907, KODIAK AUGUST .4% CONDNS DB=>MCWB, 8/21 05:00:00
 System Sizing Information, ZONE OFFICE WHOLEBUILDING - MD OFFICE A  - STORY TOP PSZ-AC, Heating, Sensible, 9060.27, 0.21729, 0.21729, KODIAK ANN HTG 99.6% CONDNS DB, 1/21 07:00:00
 System Sizing Information, ZONE OFFICE WHOLEBUILDING - MD OFFICE A END_A - STORY GROUND PSZ-AC, Cooling, Sensible, 2327.33, 0.17332, 0.17332, KODIAK AUGUST .4% CONDNS DB=>MCWB, 8/21 05:00:00
 System Sizing Information, ZONE OFFICE WHOLEBUILDING - MD OFFICE A END_A - STORY GROUND PSZ-AC, Heating, Sensible, 4301.82, 0.11193, 0.11193, KODIAK ANN HTG 99.6% CONDNS DB, 1/21 08:00:00
 System Sizing Information, ZONE OFFICE WHOLEBUILDING - MD OFFICE A END_A - STORY TOP PSZ-AC, Cooling, Sensible, 2789.20, 0.20591, 0.20591, KODIAK JULY .4% CONDNS DB=>MCWB, 7/21 05:00:00
 System Sizing Information, ZONE OFFICE WHOLEBUILDING - MD OFFICE A END_A - STORY TOP PSZ-AC, Heating, Sensible, 4587.82, 0.11924, 0.11924, KODIAK ANN HTG 99.6% CONDNS DB, 1/21 07:00:00
 System Sizing Information, ZONE OFFICE WHOLEBUILDING - MD OFFICE A END_B - STORY GROUND PSZ-AC, Cooling, Sensible, 2241.29, 0.16555, 0.16555, KODIAK JULY .4% CONDNS DB=>MCWB, 7/21 05:00:00
 System Sizing Information, ZONE OFFICE WHOLEBUILDING - MD OFFICE A END_B - STORY GROUND PSZ-AC, Heating, Sensible, 4282.31, 0.11138, 0.11138, KODIAK ANN HTG 99.6% CONDNS DB, 1/21 08:00:00
 System Sizing Information, ZONE OFFICE WHOLEBUILDING - MD OFFICE A END_B - STORY TOP PSZ-AC, Cooling, Sensible, 2726.53, 0.20145, 0.20145, KODIAK JULY .4% CONDNS DB=>MCWB, 7/21 05:00:00
 System Sizing Information, ZONE OFFICE WHOLEBUILDING - MD OFFICE A END_B - STORY TOP PSZ-AC, Heating, Sensible, 4565.32, 0.11857, 0.11857, KODIAK ANN HTG 99.6% CONDNS DB, 1/21 07:00:00
 System Sizing Information, ZONE OFFICE WHOLEBUILDING - MD OFFICE B  - STORY GROUND PSZ-AC, Cooling, Sensible, 3536.35, 0.27454, 0.27454, KODIAK JULY .4% CONDNS DB=>MCWB, 7/21 05:00:00
 System Sizing Information, ZONE OFFICE WHOLEBUILDING - MD OFFICE B  - STORY GROUND PSZ-AC, Heating, Sensible, 5625.83, 0.10815, 0.10815, KODIAK ANN HTG 99.6% CONDNS DB, 1/21 08:00:00
 System Sizing Information, ZONE OFFICE WHOLEBUILDING - MD OFFICE B  - STORY TOP PSZ-AC, Cooling, Sensible, 3756.05, 0.27633, 0.27633, KODIAK JULY .4% CONDNS DB=>MCWB, 7/21 05:00:00
 System Sizing Information, ZONE OFFICE WHOLEBUILDING - MD OFFICE B  - STORY TOP PSZ-AC, Heating, Sensible, 6636.57, 0.13246, 0.13246, KODIAK ANN HTG 99.6% CONDNS DB, 1/21 07:00:00
 System Sizing Information, ZONE OFFICE WHOLEBUILDING - MD OFFICE B END_A - STORY GROUND PSZ-AC, Cooling, Sensible, 2586.85, 0.19358, 0.19358, KODIAK JULY .4% CONDNS DB=>MCWB, 7/21 05:00:00
 System Sizing Information, ZONE OFFICE WHOLEBUILDING - MD OFFICE B END_A - STORY GROUND PSZ-AC, Heating, Sensible, 4239.93, 0.10470, 0.10470, KODIAK ANN HTG 99.6% CONDNS DB, 1/21 08:00:00
 System Sizing Information, ZONE OFFICE WHOLEBUILDING - MD OFFICE B END_A - STORY TOP PSZ-AC, Cooling, Sensible, 3311.45, 0.24585, 0.24585, KODIAK JULY .4% CONDNS DB=>MCWB, 7/21 05:00:00
 System Sizing Information, ZONE OFFICE WHOLEBUILDING - MD OFFICE B END_A - STORY TOP PSZ-AC, Heating, Sensible, 4590.59, 0.11168, 0.11168, KODIAK ANN HTG 99.6% CONDNS DB, 1/21 07:00:00
 System Sizing Information, ZONE OFFICE WHOLEBUILDING - MD OFFICE B END_B - STORY GROUND PSZ-AC, Cooling, Sensible, 2567.11, 0.19111, 0.19111, KODIAK JULY .4% CONDNS DB=>MCWB, 7/21 05:00:00
 System Sizing Information, ZONE OFFICE WHOLEBUILDING - MD OFFICE B END_B - STORY GROUND PSZ-AC, Heating, Sensible, 4212.68, 0.10392, 0.10392, KODIAK ANN HTG 99.6% CONDNS DB, 1/21 08:00:00
 System Sizing Information, ZONE OFFICE WHOLEBUILDING - MD OFFICE B END_B - STORY TOP PSZ-AC, Cooling, Sensible, 3233.49, 0.24128, 0.24128, KODIAK JULY .4% CONDNS DB=>MCWB, 7/21 05:00:00
 System Sizing Information, ZONE OFFICE WHOLEBUILDING - MD OFFICE B END_B - STORY TOP PSZ-AC, Heating, Sensible, 4559.45, 0.11075, 0.11075, KODIAK ANN HTG 99.6% CONDNS DB, 1/21 07:00:00
 System Sizing Information, ZONE OFFICE WHOLEBUILDING - MD OFFICE C  - STORY GROUND PSZ-AC, Cooling, Sensible, 2211.69, 0.17244, 0.17244, KODIAK JULY .4% CONDNS DB=>MCWB, 7/21 05:00:00
 System Sizing Information, ZONE OFFICE WHOLEBUILDING - MD OFFICE C  - STORY GROUND PSZ-AC, Heating, Sensible, 8378.31, 0.20396, 0.20396, KODIAK ANN HTG 99.6% CONDNS DB, 1/21 08:00:00
 System Sizing Information, ZONE OFFICE WHOLEBUILDING - MD OFFICE C  - STORY TOP PSZ-AC, Cooling, Sensible, 2576.46, 0.19531, 0.19531, KODIAK JULY .4% CONDNS DB=>MCWB, 7/21 05:00:00
 System Sizing Information, ZONE OFFICE WHOLEBUILDING - MD OFFICE C  - STORY TOP PSZ-AC, Heating, Sensible, 9118.07, 0.21902, 0.21902, KODIAK ANN HTG 99.6% CONDNS DB, 1/21 07:00:00
 System Sizing Information, ZONE OFFICE WHOLEBUILDING - MD OFFICE C END_A - STORY GROUND PSZ-AC, Cooling, Sensible, 1777.71, 0.13317, 0.13317, KODIAK JULY .4% CONDNS DB=>MCWB, 7/21 05:00:00
 System Sizing Information, ZONE OFFICE WHOLEBUILDING - MD OFFICE C END_A - STORY GROUND PSZ-AC, Heating, Sensible, 4321.26, 0.11249, 0.11249, KODIAK ANN HTG 99.6% CONDNS DB, 1/21 08:00:00
 System Sizing Information, ZONE OFFICE WHOLEBUILDING - MD OFFICE C END_A - STORY TOP PSZ-AC, Cooling, Sensible, 2258.79, 0.16755, 0.16755, KODIAK JULY .4% CONDNS DB=>MCWB, 7/21 05:00:00
 System Sizing Information, ZONE OFFICE WHOLEBUILDING - MD OFFICE C END_A - STORY TOP PSZ-AC, Heating, Sensible, 4610.24, 0.11991, 0.11991, KODIAK ANN HTG 99.6% CONDNS DB, 1/21 07:00:00
 System Sizing Information, ZONE OFFICE WHOLEBUILDING - MD OFFICE C END_B - STORY GROUND PSZ-AC, Cooling, Sensible, 1683.40, 0.12512, 0.12512, KODIAK JULY .4% CONDNS DB=>MCWB, 7/21 05:00:00
 System Sizing Information, ZONE OFFICE WHOLEBUILDING - MD OFFICE C END_B - STORY GROUND PSZ-AC, Heating, Sensible, 4301.77, 0.11193, 0.11193, KODIAK ANN HTG 99.6% CONDNS DB, 1/21 08:00:00
 System Sizing Information, ZONE OFFICE WHOLEBUILDING - MD OFFICE C END_B - STORY TOP PSZ-AC, Cooling, Sensible, 2180.31, 0.16288, 0.16288, KODIAK JULY .4% CONDNS DB=>MCWB, 7/21 05:00:00
 System Sizing Information, ZONE OFFICE WHOLEBUILDING - MD OFFICE C END_B - STORY TOP PSZ-AC, Heating, Sensible, 4587.78, 0.11924, 0.11924, KODIAK ANN HTG 99.6% CONDNS DB, 1/21 07:00:00
! <Component Sizing Information>, Component Type, Component Name, Input Field Description, Value
 Component Sizing Information, AirTerminal:SingleDuct:ConstantVolume:NoReheat, ZONE OFFICE WHOLEBUILDING - MD OFFICE A  - STORY GROUND PSZ-AC DIFFUSER, Design Size Maximum Air Flow Rate [m3/s], 0.37341
 Component Sizing Information, AirTerminal:SingleDuct:ConstantVolume:NoReheat, ZONE OFFICE WHOLEBUILDING - MD OFFICE A  - STORY TOP PSZ-AC DIFFUSER, Design Size Maximum Air Flow Rate [m3/s], 0.46907
 Component Sizing Information, AirTerminal:SingleDuct:ConstantVolume:NoReheat, ZONE OFFICE WHOLEBUILDING - MD OFFICE A END_A - STORY GROUND PSZ-AC DIFFUSER, Design Size Maximum Air Flow Rate [m3/s], 0.17332
 Component Sizing Information, AirTerminal:SingleDuct:ConstantVolume:NoReheat, ZONE OFFICE WHOLEBUILDING - MD OFFICE A END_A - STORY TOP PSZ-AC DIFFUSER, Design Size Maximum Air Flow Rate [m3/s], 0.20675
 Component Sizing Information, AirTerminal:SingleDuct:ConstantVolume:NoReheat, ZONE OFFICE WHOLEBUILDING - MD OFFICE A END_B - STORY GROUND PSZ-AC DIFFUSER, Design Size Maximum Air Flow Rate [m3/s], 0.16555
 Component Sizing Information, AirTerminal:SingleDuct:ConstantVolume:NoReheat, ZONE OFFICE WHOLEBUILDING - MD OFFICE A END_B - STORY TOP PSZ-AC DIFFUSER, Design Size Maximum Air Flow Rate [m3/s], 0.20145
 Component Sizing Information, AirTerminal:SingleDuct:ConstantVolume:NoReheat, ZONE OFFICE WHOLEBUILDING - MD OFFICE B  - STORY GROUND PSZ-AC DIFFUSER, Design Size Maximum Air Flow Rate [m3/s], 0.27187
 Component Sizing Information, AirTerminal:SingleDuct:ConstantVolume:NoReheat, ZONE OFFICE WHOLEBUILDING - MD OFFICE B  - STORY TOP PSZ-AC DIFFUSER, Design Size Maximum Air Flow Rate [m3/s], 0.27633
 Component Sizing Information, AirTerminal:SingleDuct:ConstantVolume:NoReheat, ZONE OFFICE WHOLEBUILDING - MD OFFICE B END_A - STORY GROUND PSZ-AC DIFFUSER, Design Size Maximum Air Flow Rate [m3/s], 0.19358
 Component Sizing Information, AirTerminal:SingleDuct:ConstantVolume:NoReheat, ZONE OFFICE WHOLEBUILDING - MD OFFICE B END_A - STORY TOP PSZ-AC DIFFUSER, Design Size Maximum Air Flow Rate [m3/s], 0.24585
 Component Sizing Information, AirTerminal:SingleDuct:ConstantVolume:NoReheat, ZONE OFFICE WHOLEBUILDING - MD OFFICE B END_B - STORY GROUND PSZ-AC DIFFUSER, Design Size Maximum Air Flow Rate [m3/s], 0.19111
 Component Sizing Information, AirTerminal:SingleDuct:ConstantVolume:NoReheat, ZONE OFFICE WHOLEBUILDING - MD OFFICE B END_B - STORY TOP PSZ-AC DIFFUSER, Design Size Maximum Air Flow Rate [m3/s], 0.24128
 Component Sizing Information, AirTerminal:SingleDuct:ConstantVolume:NoReheat, ZONE OFFICE WHOLEBUILDING - MD OFFICE C  - STORY GROUND PSZ-AC DIFFUSER, Design Size Maximum Air Flow Rate [m3/s], 0.20396
 Component Sizing Information, AirTerminal:SingleDuct:ConstantVolume:NoReheat, ZONE OFFICE WHOLEBUILDING - MD OFFICE C  - STORY TOP PSZ-AC DIFFUSER, Design Size Maximum Air Flow Rate [m3/s], 0.21575
 Component Sizing Information, AirTerminal:SingleDuct:ConstantVolume:NoReheat, ZONE OFFICE WHOLEBUILDING - MD OFFICE C END_A - STORY GROUND PSZ-AC DIFFUSER, Design Size Maximum Air Flow Rate [m3/s], 0.13317
 Component Sizing Information, AirTerminal:SingleDuct:ConstantVolume:NoReheat, ZONE OFFICE WHOLEBUILDING - MD OFFICE C END_A - STORY TOP PSZ-AC DIFFUSER, Design Size Maximum Air Flow Rate [m3/s], 0.16755
 Component Sizing Information, AirTerminal:SingleDuct:ConstantVolume:NoReheat, ZONE OFFICE WHOLEBUILDING - MD OFFICE C END_B - STORY GROUND PSZ-AC DIFFUSER, Design Size Maximum Air Flow Rate [m3/s], 0.12512
 Component Sizing Information, AirTerminal:SingleDuct:ConstantVolume:NoReheat, ZONE OFFICE WHOLEBUILDING - MD OFFICE C END_B - STORY TOP PSZ-AC DIFFUSER, Design Size Maximum Air Flow Rate [m3/s], 0.16163
 Component Sizing Information, AirLoopHVAC, ZONE OFFICE WHOLEBUILDING - MD OFFICE A  - STORY GROUND PSZ-AC, Sum of Air Terminal Maximum Heating Flow Rates [m3/s], 0.37341
 Component Sizing Information, AirLoopHVAC, ZONE OFFICE WHOLEBUILDING - MD OFFICE A  - STORY GROUND PSZ-AC, Sum of Air Terminal Minimum Heating Flow Rates [m3/s], 0.37341
 Component Sizing Information, AirLoopHVAC, ZONE OFFICE WHOLEBUILDING - MD OFFICE A  - STORY GROUND PSZ-AC, Sum of Air Terminal Maximum Flow Rates [m3/s], 0.37341
 Component Sizing Information, AirLoopHVAC, ZONE OFFICE WHOLEBUILDING - MD OFFICE A  - STORY GROUND PSZ-AC, Adjusted Heating Design Air Flow Rate [m3/s], 0.37341
 Component Sizing Information, AirLoopHVAC, ZONE OFFICE WHOLEBUILDING - MD OFFICE A  - STORY GROUND PSZ-AC, Adjusted Cooling Design Air Flow Rate [m3/s], 0.37341
 Component Sizing Information, AirLoopHVAC, ZONE OFFICE WHOLEBUILDING - MD OFFICE A  - STORY GROUND PSZ-AC, Adjusted Main Design Air Flow Rate [m3/s], 0.37341
 Component Sizing Information, AirLoopHVAC, ZONE OFFICE WHOLEBUILDING - MD OFFICE A  - STORY GROUND PSZ-AC, User Heating Air Flow Ratio [], 1.00000
 Component Sizing Information, AirLoopHVAC, ZONE OFFICE WHOLEBUILDING - MD OFFICE A  - STORY GROUND PSZ-AC, Calculated Heating Air Flow Ratio [], 1.00000
 Component Sizing Information, AirLoopHVAC, ZONE OFFICE WHOLEBUILDING - MD OFFICE A  - STORY TOP PSZ-AC, Sum of Air Terminal Maximum Heating Flow Rates [m3/s], 0.46907
 Component Sizing Information, AirLoopHVAC, ZONE OFFICE WHOLEBUILDING - MD OFFICE A  - STORY TOP PSZ-AC, Sum of Air Terminal Minimum Heating Flow Rates [m3/s], 0.46907
 Component Sizing Information, AirLoopHVAC, ZONE OFFICE WHOLEBUILDING - MD OFFICE A  - STORY TOP PSZ-AC, Sum of Air Terminal Maximum Flow Rates [m3/s], 0.46907
 Component Sizing Information, AirLoopHVAC, ZONE OFFICE WHOLEBUILDING - MD OFFICE A  - STORY TOP PSZ-AC, Adjusted Heating Design Air Flow Rate [m3/s], 0.46907
 Component Sizing Information, AirLoopHVAC, ZONE OFFICE WHOLEBUILDING - MD OFFICE A  - STORY TOP PSZ-AC, Adjusted Cooling Design Air Flow Rate [m3/s], 0.46907
 Component Sizing Information, AirLoopHVAC, ZONE OFFICE WHOLEBUILDING - MD OFFICE A  - STORY TOP PSZ-AC, Adjusted Main Design Air Flow Rate [m3/s], 0.46907
 Component Sizing Information, AirLoopHVAC, ZONE OFFICE WHOLEBUILDING - MD OFFICE A  - STORY TOP PSZ-AC, User Heating Air Flow Ratio [], 1.00000
 Component Sizing Information, AirLoopHVAC, ZONE OFFICE WHOLEBUILDING - MD OFFICE A  - STORY TOP PSZ-AC, Calculated Heating Air Flow Ratio [], 1.00000
 Component Sizing Information, AirLoopHVAC, ZONE OFFICE WHOLEBUILDING - MD OFFICE A END_A - STORY GROUND PSZ-AC, Sum of Air Terminal Maximum Heating Flow Rates [m3/s], 0.17332
 Component Sizing Information, AirLoopHVAC, ZONE OFFICE WHOLEBUILDING - MD OFFICE A END_A - STORY GROUND PSZ-AC, Sum of Air Terminal Minimum Heating Flow Rates [m3/s], 0.17332
 Component Sizing Information, AirLoopHVAC, ZONE OFFICE WHOLEBUILDING - MD OFFICE A END_A - STORY GROUND PSZ-AC, Sum of Air Terminal Maximum Flow Rates [m3/s], 0.17332
 Component Sizing Information, AirLoopHVAC, ZONE OFFICE WHOLEBUILDING - MD OFFICE A END_A - STORY GROUND PSZ-AC, Adjusted Heating Design Air Flow Rate [m3/s], 0.17332
 Component Sizing Information, AirLoopHVAC, ZONE OFFICE WHOLEBUILDING - MD OFFICE A END_A - STORY GROUND PSZ-AC, Adjusted Cooling Design Air Flow Rate [m3/s], 0.17332
 Component Sizing Information, AirLoopHVAC, ZONE OFFICE WHOLEBUILDING - MD OFFICE A END_A - STORY GROUND PSZ-AC, Adjusted Main Design Air Flow Rate [m3/s], 0.17332
 Component Sizing Information, AirLoopHVAC, ZONE OFFICE WHOLEBUILDING - MD OFFICE A END_A - STORY GROUND PSZ-AC, User Heating Air Flow Ratio [], 1.00000
 Component Sizing Information, AirLoopHVAC, ZONE OFFICE WHOLEBUILDING - MD OFFICE A END_A - STORY GROUND PSZ-AC, Calculated Heating Air Flow Ratio [], 1.00000
 Component Sizing Information, AirLoopHVAC, ZONE OFFICE WHOLEBUILDING - MD OFFICE A END_A - STORY TOP PSZ-AC, Sum of Air Terminal Maximum Heating Flow Rates [m3/s], 0.20675
 Component Sizing Information, AirLoopHVAC, ZONE OFFICE WHOLEBUILDING - MD OFFICE A END_A - STORY TOP PSZ-AC, Sum of Air Terminal Minimum Heating Flow Rates [m3/s], 0.20675
 Component Sizing Information, AirLoopHVAC, ZONE OFFICE WHOLEBUILDING - MD OFFICE A END_A - STORY TOP PSZ-AC, Sum of Air Terminal Maximum Flow Rates [m3/s], 0.20675
 Component Sizing Information, AirLoopHVAC, ZONE OFFICE WHOLEBUILDING - MD OFFICE A END_A - STORY TOP PSZ-AC, Adjusted Heating Design Air Flow Rate [m3/s], 0.20675
 Component Sizing Information, AirLoopHVAC, ZONE OFFICE WHOLEBUILDING - MD OFFICE A END_A - STORY TOP PSZ-AC, Adjusted Cooling Design Air Flow Rate [m3/s], 0.20675
 Component Sizing Information, AirLoopHVAC, ZONE OFFICE WHOLEBUILDING - MD OFFICE A END_A - STORY TOP PSZ-AC, Adjusted Main Design Air Flow Rate [m3/s], 0.20675
 Component Sizing Information, AirLoopHVAC, ZONE OFFICE WHOLEBUILDING - MD OFFICE A END_A - STORY TOP PSZ-AC, User Heating Air Flow Ratio [], 1.00000
 Component Sizing Information, AirLoopHVAC, ZONE OFFICE WHOLEBUILDING - MD OFFICE A END_A - STORY TOP PSZ-AC, Calculated Heating Air Flow Ratio [], 1.00000
 Component Sizing Information, AirLoopHVAC, ZONE OFFICE WHOLEBUILDING - MD OFFICE A END_B - STORY GROUND PSZ-AC, Sum of Air Terminal Maximum Heating Flow Rates [m3/s], 0.16555
 Component Sizing Information, AirLoopHVAC, ZONE OFFICE WHOLEBUILDING - MD OFFICE A END_B - STORY GROUND PSZ-AC, Sum of Air Terminal Minimum Heating Flow Rates [m3/s], 0.16555
[...]
 Warmup Convergence Information,ZONE OFFICE WHOLEBUILDING - MD OFFICE C END_B - STORY GROUND,SizingPeriod: KODIAK OCTOBER .4% CONDNS DB=>MCWB,4.4124827007E-002,4.7879732881E-002,Pass,Pass,0.2665631477,0.8615107150,Pass,Pass
 Warmup Convergence Information,ZONE OFFICE WHOLEBUILDING - MD OFFICE C END_B - STORY TOP,SizingPeriod: KODIAK OCTOBER .4% CONDNS DB=>MCWB,6.9726957695E-002,7.0632854287E-002,Pass,Pass,2.3641981990E-002,4.8937585265E-002,Pass,Pass
Environment,KODIAK OCTOBER .4% CONDNS WB=>MCDB,SizingPeriod:DesignDay,10/21,10/21,SummerDesignDay,1,N/A,N/A,N/A,N/A,N/A,N/A,Clark and Allen
Environment:Daylight Saving,No,SizingPeriod:DesignDay
Environment:Design Day Data,11.30,6.20,DefaultMultipliers,Wetbulb,10.70,{C},100917,320,5.0,0.00,No,No
Environment:Design Day Misc,294,1191.2,0.1597,7.3069E-002,1.0,15.18,-10.4,ASHRAETau
Environment:WarmupDays,  6
 Warmup Convergence Information,ZONE OFFICE WHOLEBUILDING - MD OFFICE A  - STORY GROUND,SizingPeriod: KODIAK OCTOBER .4% CONDNS WB=>MCDB,1.7250827231E-002,2.8962568954E-002,Pass,Pass,4.1779001289E-002,0.1036830711,Pass,Pass
 Warmup Convergence Information,ZONE OFFICE WHOLEBUILDING - MD OFFICE A  - STORY TOP,SizingPeriod: KODIAK OCTOBER .4% CONDNS WB=>MCDB,4.9088500019E-002,7.1349273156E-002,Pass,Pass,0.5091543067,1.0370322373,Pass,Pass
 Warmup Convergence Information,ZONE OFFICE WHOLEBUILDING - MD OFFICE A END_A - STORY GROUND,SizingPeriod: KODIAK OCTOBER .4% CONDNS WB=>MCDB,4.3579970908E-002,5.1206251409E-002,Pass,Pass,0.1603132743,0.8937539500,Pass,Pass
 Warmup Convergence Information,ZONE OFFICE WHOLEBUILDING - MD OFFICE A END_A - STORY TOP,SizingPeriod: KODIAK OCTOBER .4% CONDNS WB=>MCDB,7.7487164544E-002,8.9790517156E-002,Pass,Pass,9.3173334517E-002,0.4179982720,Pass,Pass
 Warmup Convergence Information,ZONE OFFICE WHOLEBUILDING - MD OFFICE A END_B - STORY GROUND,SizingPeriod: KODIAK OCTOBER .4% CONDNS WB=>MCDB,4.4170575568E-002,6.8619013077E-002,Pass,Pass,0.2431834346,0.7912773482,Pass,Pass
 Warmup Convergence Information,ZONE OFFICE WHOLEBUILDING - MD OFFICE A END_B - STORY TOP,SizingPeriod: KODIAK OCTOBER .4% CONDNS WB=>MCDB,7.7880397564E-002,0.1092457493,Pass,Pass,9.1075971463E-002,0.2955717020,Pass,Pass
 Warmup Convergence Information,ZONE OFFICE WHOLEBUILDING - MD OFFICE B  - STORY GROUND,SizingPeriod: KODIAK OCTOBER .4% CONDNS WB=>MCDB,8.2812776353E-003,1.4404469296E-002,Pass,Pass,1.3442669705E-002,5.7148846566E-002,Pass,Pass
 Warmup Convergence Information,ZONE OFFICE WHOLEBUILDING - MD OFFICE B  - STORY TOP,SizingPeriod: KODIAK OCTOBER .4% CONDNS WB=>MCDB,2.8412772721E-002,3.3645606391E-002,Pass,Pass,1.8758897196E-002,4.3331507289E-002,Pass,Pass
 Warmup Convergence Information,ZONE OFFICE WHOLEBUILDING - MD OFFICE B END_A - STORY GROUND,SizingPeriod: KODIAK OCTOBER .4% CONDNS WB=>MCDB,3.5695315826E-002,2.4818890463E-002,Pass,Pass,0.2915665648,0.8357963686,Pass,Pass
 Warmup Convergence Information,ZONE OFFICE WHOLEBUILDING - MD OFFICE B END_A - STORY TOP,SizingPeriod: KODIAK OCTOBER .4% CONDNS WB=>MCDB,6.1653257647E-002,4.3023957304E-002,Pass,Pass,9.9537614455E-002,0.2698628536,Pass,Pass
 Warmup Convergence Information,ZONE OFFICE WHOLEBUILDING - MD OFFICE B END_B - STORY GROUND,SizingPeriod: KODIAK OCTOBER .4% CONDNS WB=>MCDB,3.5934402449E-002,4.7035780696E-002,Pass,Pass,2.8883630371,32.6693423379,Pass,Pass
 Warmup Convergence Information,ZONE OFFICE WHOLEBUILDING - MD OFFICE B END_B - STORY TOP,SizingPeriod: KODIAK OCTOBER .4% CONDNS WB=>MCDB,6.2123059489E-002,7.4871527143E-002,Pass,Pass,0.1548678884,0.6638383095,Pass,Pass
 Warmup Convergence Information,ZONE OFFICE WHOLEBUILDING - MD OFFICE C  - STORY GROUND,SizingPeriod: KODIAK OCTOBER .4% CONDNS WB=>MCDB,2.7059425414E-002,1.7157167504E-002,Pass,Pass,1.1345099865E-002,8.8271903197E-003,Pass,Pass
 Warmup Convergence Information,ZONE OFFICE WHOLEBUILDING - MD OFFICE C  - STORY TOP,SizingPeriod: KODIAK OCTOBER .4% CONDNS WB=>MCDB,5.4914138434E-002,2.8003098562E-002,Pass,Pass,1.0107482666E-002,1.1957104259E-002,Pass,Pass
 Warmup Convergence Information,ZONE OFFICE WHOLEBUILDING - MD OFFICE C END_A - STORY GROUND,SizingPeriod: KODIAK OCTOBER .4% CONDNS WB=>MCDB,5.3936830909E-002,3.4701908802E-002,Pass,Pass,8.1953445565E-002,0.1635655921,Pass,Pass
 Warmup Convergence Information,ZONE OFFICE WHOLEBUILDING - MD OFFICE C END_A - STORY TOP,SizingPeriod: KODIAK OCTOBER .4% CONDNS WB=>MCDB,9.1056647558E-002,4.9776085863E-002,Pass,Pass,2.5413598735E-002,3.7613976462E-002,Pass,Pass
 Warmup Convergence Information,ZONE OFFICE WHOLEBUILDING - MD OFFICE C END_B - STORY GROUND,SizingPeriod: KODIAK OCTOBER .4% CONDNS WB=>MCDB,4.4497488513E-002,4.7888866926E-002,Pass,Pass,0.2538191468,0.5843668022,Pass,Pass
 Warmup Convergence Information,ZONE OFFICE WHOLEBUILDING - MD OFFICE C END_B - STORY TOP,SizingPeriod: KODIAK OCTOBER .4% CONDNS WB=>MCDB,7.0542104551E-002,7.0844299766E-002,Pass,Pass,2.4224555740E-002,5.3409626719E-002,Pass,Pass
Environment,KODIAK SEPTEMBER .4% CONDNS DB=>MCWB,SizingPeriod:DesignDay,09/21,09/21,SummerDesignDay,1,N/A,N/A,N/A,N/A,N/A,N/A,Clark and Allen
Environment:Daylight Saving,No,SizingPeriod:DesignDay
Environment:Design Day Data,18.00,6.40,DefaultMultipliers,Wetbulb,12.50,{C},100917,320,5.0,0.00,No,No
Environment:Design Day Misc,264,1151.1,0.1777,9.2179E-002,1.0,6.63,1.0,ASHRAETau
Environment:WarmupDays,  6
 Warmup Convergence Information,ZONE OFFICE WHOLEBUILDING - MD OFFICE A  - STORY GROUND,SizingPeriod: KODIAK SEPTEMBER .4% CONDNS DB=>MCWB,3.0138940589E-002,0.1193254872,Pass,Pass,0.1883399666,1.4570145495,Pass,Pass
 Warmup Convergence Information,ZONE OFFICE WHOLEBUILDING - MD OFFICE A  - STORY TOP,SizingPeriod: KODIAK SEPTEMBER .4% CONDNS DB=>MCWB,2.0891241048E-002,8.4062622734E-002,Pass,Pass,0.1088646399,0.6459329445,Pass,Pass
 Warmup Convergence Information,ZONE OFFICE WHOLEBUILDING - MD OFFICE A END_A - STORY GROUND,SizingPeriod: KODIAK SEPTEMBER .4% CONDNS DB=>MCWB,1.9161869192E-002,7.5276812100E-002,Pass,Pass,9.6509869434E-002,0.6148110592,Pass,Pass
 Warmup Convergence Information,ZONE OFFICE WHOLEBUILDING - MD OFFICE A END_A - STORY TOP,SizingPeriod: KODIAK SEPTEMBER .4% CONDNS DB=>MCWB,1.4723022298E-002,2.4097440845E-002,Pass,Pass,0.1194521775,0.3339968209,Pass,Pass
 Warmup Convergence Information,ZONE OFFICE WHOLEBUILDING - MD OFFICE A END_B - STORY GROUND,SizingPeriod: KODIAK SEPTEMBER .4% CONDNS DB=>MCWB,1.6479626651E-002,5.9600835219E-002,Pass,Pass,0.1395379771,0.8448521201,Pass,Pass
 Warmup Convergence Information,ZONE OFFICE WHOLEBUILDING - MD OFFICE A END_B - STORY TOP,SizingPeriod: KODIAK SEPTEMBER .4% CONDNS DB=>MCWB,1.5239718517E-002,3.4857567408E-002,Pass,Pass,0.1086207770,0.2828783740,Pass,Pass
 Warmup Convergence Information,ZONE OFFICE WHOLEBUILDING - MD OFFICE B  - STORY GROUND,SizingPeriod: KODIAK SEPTEMBER .4% CONDNS DB=>MCWB,3.4316477132E-002,0.1121226898,Pass,Pass,6.8052249816E-002,0.4010873872,Pass,Pass
 Warmup Convergence Information,ZONE OFFICE WHOLEBUILDING - MD OFFICE B  - STORY TOP,SizingPeriod: KODIAK SEPTEMBER .4% CONDNS DB=>MCWB,2.6792451532E-002,9.4914609032E-002,Pass,Pass,5.4749298645E-002,0.3318356604,Pass,Pass
 Warmup Convergence Information,ZONE OFFICE WHOLEBUILDING - MD OFFICE B END_A - STORY GROUND,SizingPeriod: KODIAK SEPTEMBER .4% CONDNS DB=>MCWB,2.0065918532E-002,9.4474860693E-002,Pass,Pass,0.8767068268,9.4361041410,Pass,Pass
 Warmup Convergence Information,ZONE OFFICE WHOLEBUILDING - MD OFFICE B END_A - STORY TOP,SizingPeriod: KODIAK SEPTEMBER .4% CONDNS DB=>MCWB,1.1386154468E-002,2.7948176300E-002,Pass,Pass,8.2334667616E-002,0.2427526653,Pass,Pass
 Warmup Convergence Information,ZONE OFFICE WHOLEBUILDING - MD OFFICE B END_B - STORY GROUND,SizingPeriod: KODIAK SEPTEMBER .4% CONDNS DB=>MCWB,1.7734708162E-002,8.7143564730E-002,Pass,Pass,0.5967688340,4.2465740624,Pass,Pass
 Warmup Convergence Information,ZONE OFFICE WHOLEBUILDING - MD OFFICE B END_B - STORY TOP,SizingPeriod: KODIAK SEPTEMBER .4% CONDNS DB=>MCWB,9.9269516803E-003,2.1456506081E-002,Pass,Pass,4.6834098664E-002,0.1015237636,Pass,Pass
 Warmup Convergence Information,ZONE OFFICE WHOLEBUILDING - MD OFFICE C  - STORY GROUND,SizingPeriod: KODIAK SEPTEMBER .4% CONDNS DB=>MCWB,5.2653854445E-003,1.1649321933E-002,Pass,Pass,3.0579869984E-002,0.1501796651,Pass,Pass
 Warmup Convergence Information,ZONE OFFICE WHOLEBUILDING - MD OFFICE C  - STORY TOP,SizingPeriod: KODIAK SEPTEMBER .4% CONDNS DB=>MCWB,1.6274334353E-002,2.4534547462E-002,Pass,Pass,3.6487630067E-002,5.2826026450E-002,Pass,Pass
 Warmup Convergence Information,ZONE OFFICE WHOLEBUILDING - MD OFFICE C END_A - STORY GROUND,SizingPeriod: KODIAK SEPTEMBER .4% CONDNS DB=>MCWB,1.4257938715E-002,1.7775246651E-002,Pass,Pass,0.1449453604,0.5519363462,Pass,Pass
 Warmup Convergence Information,ZONE OFFICE WHOLEBUILDING - MD OFFICE C END_A - STORY TOP,SizingPeriod: KODIAK SEPTEMBER .4% CONDNS DB=>MCWB,2.9617718029E-002,3.4158766073E-002,Pass,Pass,0.1711459324,0.7261399341,Pass,Pass
 Warmup Convergence Information,ZONE OFFICE WHOLEBUILDING - MD OFFICE C END_B - STORY GROUND,SizingPeriod: KODIAK SEPTEMBER .4% CONDNS DB=>MCWB,1.6835731003E-002,3.4026082861E-002,Pass,Pass,0.2344058980,1.5629864679,Pass,Pass
 Warmup Convergence Information,ZONE OFFICE WHOLEBUILDING - MD OFFICE C END_B - STORY TOP,SizingPeriod: KODIAK SEPTEMBER .4% CONDNS DB=>MCWB,3.1140986391E-002,6.0783619739E-002,Pass,Pass,0.1047841412,0.3817150915,Pass,Pass
Environment,KODIAK SEPTEMBER .4% CONDNS WB=>MCDB,SizingPeriod:DesignDay,09/21,09/21,SummerDesignDay,1,N/A,N/A,N/A,N/A,N/A,N/A,Clark and Allen
Environment:Daylight Saving,No,SizingPeriod:DesignDay
Environment:Design Day Data,16.20,6.40,DefaultMultipliers,Wetbulb,13.80,{C},100917,320,5.0,0.00,No,No
Environment:Design Day Misc,264,1151.1,0.1777,9.2179E-002,1.0,6.63,1.0,ASHRAETau
Environment:WarmupDays,  6
 Warmup Convergence Information,ZONE OFFICE WHOLEBUILDING - MD OFFICE A  - STORY GROUND,SizingPeriod: KODIAK SEPTEMBER .4% CONDNS WB=>MCDB,2.2087719886E-002,9.5695070626E-002,Pass,Pass,0.1519802818,0.9595030444,Pass,Pass
 Warmup Convergence Information,ZONE OFFICE WHOLEBUILDING - MD OFFICE A  - STORY TOP,SizingPeriod: KODIAK SEPTEMBER .4% CONDNS WB=>MCDB,1.2246768421E-002,2.2176012383E-002,Pass,Pass,0.1301225362,0.7629009130,Pass,Pass
 Warmup Convergence Information,ZONE OFFICE WHOLEBUILDING - MD OFFICE A END_A - STORY GROUND,SizingPeriod: KODIAK SEPTEMBER .4% CONDNS WB=>MCDB,1.2673823817E-002,3.1971742197E-002,Pass,Pass,0.1048203440,0.4980533348,Pass,Pass
 Warmup Convergence Information,ZONE OFFICE WHOLEBUILDING - MD OFFICE A END_A - STORY TOP,SizingPeriod: KODIAK SEPTEMBER .4% CONDNS WB=>MCDB,2.8843052885E-002,4.6088491100E-002,Pass,Pass,0.1081883914,0.3177136178,Pass,Pass
 Warmup Convergence Information,ZONE OFFICE WHOLEBUILDING - MD OFFICE A END_B - STORY GROUND,SizingPeriod: KODIAK SEPTEMBER .4% CONDNS WB=>MCDB,1.2768133194E-002,2.8793732512E-002,Pass,Pass,7.8489264268E-002,0.4134781036,Pass,Pass
 Warmup Convergence Information,ZONE OFFICE WHOLEBUILDING - MD OFFICE A END_B - STORY TOP,SizingPeriod: KODIAK SEPTEMBER .4% CONDNS WB=>MCDB,2.9185657605E-002,6.0987611747E-002,Pass,Pass,0.1118648885,0.3395680116,Pass,Pass
 Warmup Convergence Information,ZONE OFFICE WHOLEBUILDING - MD OFFICE B  - STORY GROUND,SizingPeriod: KODIAK SEPTEMBER .4% CONDNS WB=>MCDB,2.8031179248E-002,0.1038660916,Pass,Pass,5.0989853139E-002,0.2948271908,Pass,Pass
 Warmup Convergence Information,ZONE OFFICE WHOLEBUILDING - MD OFFICE B  - STORY TOP,SizingPeriod: KODIAK SEPTEMBER .4% CONDNS WB=>MCDB,2.1485633247E-002,7.7521640836E-002,Pass,Pass,3.9247566976E-002,0.2286827376,Pass,Pass
 Warmup Convergence Information,ZONE OFFICE WHOLEBUILDING - MD OFFICE B END_A - STORY GROUND,SizingPeriod: KODIAK SEPTEMBER .4% CONDNS WB=>MCDB,1.5799118738E-002,5.6522917772E-002,Pass,Pass,0.2859849723,2.3616852804,Pass,Pass
 Warmup Convergence Information,ZONE OFFICE WHOLEBUILDING - MD OFFICE B END_A - STORY TOP,SizingPeriod: KODIAK SEPTEMBER .4% CONDNS WB=>MCDB,1.6892570748E-002,2.1755279344E-002,Pass,Pass,7.6508539396E-002,0.1567926594,Pass,Pass
 Warmup Convergence Information,ZONE OFFICE WHOLEBUILDING - MD OFFICE B END_B - STORY GROUND,SizingPeriod: KODIAK SEPTEMBER .4% CONDNS WB=>MCDB,1.1978455150E-002,3.8925275212E-002,Pass,Pass,0.3496204178,2.9275647226,Pass,Pass
 Warmup Convergence Information,ZONE OFFICE WHOLEBUILDING - MD OFFICE B END_B - STORY TOP,SizingPeriod: KODIAK SEPTEMBER .4% CONDNS WB=>MCDB,1.6059768688E-002,3.4743078263E-002,Pass,Pass,0.1614742149,1.2417064187,Pass,Pass
 Warmup Convergence Information,ZONE OFFICE WHOLEBUILDING - MD OFFICE C  - STORY GROUND,SizingPeriod: KODIAK SEPTEMBER .4% CONDNS WB=>MCDB,1.2419211152E-002,1.9093292786E-002,Pass,Pass,2.1482860960E-002,2.7526651820E-002,Pass,Pass
 Warmup Convergence Information,ZONE OFFICE WHOLEBUILDING - MD OFFICE C  - STORY TOP,SizingPeriod: KODIAK SEPTEMBER .4% CONDNS WB=>MCDB,2.9199841271E-002,3.2892122850E-002,Pass,Pass,3.1028141890E-002,5.1755897313E-002,Pass,Pass
 Warmup Convergence Information,ZONE OFFICE WHOLEBUILDING - MD OFFICE C END_A - STORY GROUND,SizingPeriod: KODIAK SEPTEMBER .4% CONDNS WB=>MCDB,2.5555794027E-002,2.3036997606E-002,Pass,Pass,0.1282525580,0.2746640994,Pass,Pass
 Warmup Convergence Information,ZONE OFFICE WHOLEBUILDING - MD OFFICE C END_A - STORY TOP,SizingPeriod: KODIAK SEPTEMBER .4% CONDNS WB=>MCDB,4.4322156151E-002,4.0287002829E-002,Pass,Pass,0.1323897342,0.4231145173,Pass,Pass
 Warmup Convergence Information,ZONE OFFICE WHOLEBUILDING - MD OFFICE C END_B - STORY GROUND,SizingPeriod: KODIAK SEPTEMBER .4% CONDNS WB=>MCDB,2.7155754314E-002,4.9612082680E-002,Pass,Pass,0.2274723979,1.3462845685,Pass,Pass
 Warmup Convergence Information,ZONE OFFICE WHOLEBUILDING - MD OFFICE C END_B - STORY TOP,SizingPeriod: KODIAK SEPTEMBER .4% CONDNS WB=>MCDB,4.6804737530E-002,7.6666500679E-002,Pass,Pass,9.0335738312E-002,0.2081059487,Pass,Pass
Environment,KODIAK ANN CLG .4% CONDNS DB=>MWB HVAC Sizing Pass 1,SizingPeriod:DesignDay,08/21,08/21,SummerDesignDay,1,N/A,N/A,N/A,N/A,N/A,N/A,Clark and Allen
Environment:Daylight Saving,No,SizingPeriod:DesignDay
Environment,KODIAK ANN CLG .4% CONDNS WB=>MDB HVAC Sizing Pass 1,SizingPeriod:DesignDay,08/21,08/21,SummerDesignDay,1,N/A,N/A,N/A,N/A,N/A,N/A,Clark and Allen
Environment:Daylight Saving,No,SizingPeriod:DesignDay
Environment,KODIAK ANN HTG 99.6% CONDNS DB HVAC Sizing Pass 1,SizingPeriod:DesignDay,01/21,01/21,WinterDesignDay,1,N/A,N/A,N/A,N/A,N/A,N/A,Clark and Allen
Environment:Daylight Saving,No,SizingPeriod:DesignDay
Environment,KODIAK APRIL .4% CONDNS DB=>MCWB HVAC Sizing Pass 1,SizingPeriod:DesignDay,04/21,04/21,SummerDesignDay,1,N/A,N/A,N/A,N/A,N/A,N/A,Clark and Allen
Environment:Daylight Saving,No,SizingPeriod:DesignDay
Environment,KODIAK APRIL .4% CONDNS WB=>MCDB HVAC Sizing Pass 1,SizingPeriod:DesignDay,04/21,04/21,SummerDesignDay,1,N/A,N/A,N/A,N/A,N/A,N/A,Clark and Allen
Environment:Daylight Saving,No,SizingPeriod:DesignDay
Environment,KODIAK AUGUST .4% CONDNS DB=>MCWB HVAC Sizing Pass 1,SizingPeriod:DesignDay,08/21,08/21,SummerDesignDay,1,N/A,N/A,N/A,N/A,N/A,N/A,Clark and Allen
Environment:Daylight Saving,No,SizingPeriod:DesignDay
Environment,KODIAK AUGUST .4% CONDNS WB=>MCDB HVAC Sizing Pass 1,SizingPeriod:DesignDay,08/21,08/21,SummerDesignDay,1,N/A,N/A,N/A,N/A,N/A,N/A,Clark and Allen
Environment:Daylight Saving,No,SizingPeriod:DesignDay
Environment,KODIAK DECEMBER .4% CONDNS DB=>MCWB HVAC Sizing Pass 1,SizingPeriod:DesignDay,12/21,12/21,SummerDesignDay,1,N/A,N/A,N/A,N/A,N/A,N/A,Clark and Allen
Environment:Daylight Saving,No,SizingPeriod:DesignDay
Environment,KODIAK DECEMBER .4% CONDNS WB=>MCDB HVAC Sizing Pass 1,SizingPeriod:DesignDay,12/21,12/21,SummerDesignDay,1,N/A,N/A,N/A,N/A,N/A,N/A,Clark and Allen
Environment:Daylight Saving,No,SizingPeriod:DesignDay
Environment,KODIAK FEBRUARY .4% CONDNS DB=>MCWB HVAC Sizing Pass 1,SizingPeriod:DesignDay,02/21,02/21,SummerDesignDay,1,N/A,N/A,N/A,N/A,N/A,N/A,Clark and Allen
Environment:Daylight Saving,No,SizingPeriod:DesignDay
Environment,KODIAK FEBRUARY .4% CONDNS WB=>MCDB HVAC Sizing Pass 1,SizingPeriod:DesignDay,02/21,02/21,SummerDesignDay,1,N/A,N/A,N/A,N/A,N/A,N/A,Clark and Allen
Environment:Daylight Saving,No,SizingPeriod:DesignDay
Environment,KODIAK JANUARY .4% CONDNS DB=>MCWB HVAC Sizing Pass 1,SizingPeriod:DesignDay,01/21,01/21,SummerDesignDay,1,N/A,N/A,N/A,N/A,N/A,N/A,Clark and Allen
Environment:Daylight Saving,No,SizingPeriod:DesignDay
Environment,KODIAK JANUARY .4% CONDNS WB=>MCDB HVAC Sizing Pass 1,SizingPeriod:DesignDay,01/21,01/21,SummerDesignDay,1,N/A,N/A,N/A,N/A,N/A,N/A,Clark and Allen
Environment:Daylight Saving,No,SizingPeriod:DesignDay
Environment,KODIAK JULY .4% CONDNS DB=>MCWB HVAC Sizing Pass 1,SizingPeriod:DesignDay,07/21,07/21,SummerDesignDay,1,N/A,N/A,N/A,N/A,N/A,N/A,Clark and Allen
Environment:Daylight Saving,No,SizingPeriod:DesignDay
Environment,KODIAK JULY .4% CONDNS WB=>MCDB HVAC Sizing Pass 1,SizingPeriod:DesignDay,07/21,07/21,SummerDesignDay,1,N/A,N/A,N/A,N/A,N/A,N/A,Clark and Allen
Environment:Daylight Saving,No,SizingPeriod:DesignDay
Environment,KODIAK JUNE .4% CONDNS DB=>MCWB HVAC Sizing Pass 1,SizingPeriod:DesignDay,06/21,06/21,SummerDesignDay,1,N/A,N/A,N/A,N/A,N/A,N/A,Clark and Allen
Environment:Daylight Saving,No,SizingPeriod:DesignDay
Environment,KODIAK JUNE .4% CONDNS WB=>MCDB HVAC Sizing Pass 1,SizingPeriod:DesignDay,06/21,06/21,SummerDesignDay,1,N/A,N/A,N/A,N/A,N/A,N/A,Clark and Allen
Environment:Daylight Saving,No,SizingPeriod:DesignDay
Environment,KODIAK MARCH .4% CONDNS DB=>MCWB HVAC Sizing Pass 1,SizingPeriod:DesignDay,03/21,03/21,SummerDesignDay,1,N/A,N/A,N/A,N/A,N/A,N/A,Clark and Allen
Environment:Daylight Saving,No,SizingPeriod:DesignDay
Environment,KODIAK MARCH .4% CONDNS WB=>MCDB HVAC Sizing Pass 1,SizingPeriod:DesignDay,03/21,03/21,SummerDesignDay,1,N/A,N/A,N/A,N/A,N/A,N/A,Clark and Allen
Environment:Daylight Saving,No,SizingPeriod:DesignDay
Environment,KODIAK MAY .4% CONDNS DB=>MCWB HVAC Sizing Pass 1,SizingPeriod:DesignDay,05/21,05/21,SummerDesignDay,1,N/A,N/A,N/A,N/A,N/A,N/A,Clark and Allen
Environment:Daylight Saving,No,SizingPeriod:DesignDay
Environment,KODIAK MAY .4% CONDNS WB=>MCDB HVAC Sizing Pass 1,SizingPeriod:DesignDay,05/21,05/21,SummerDesignDay,1,N/A,N/A,N/A,N/A,N/A,N/A,Clark and Allen
Environment:Daylight Saving,No,SizingPeriod:DesignDay
Environment,KODIAK NOVEMBER .4% CONDNS DB=>MCWB HVAC Sizing Pass 1,SizingPeriod:DesignDay,11/21,11/21,SummerDesignDay,1,N/A,N/A,N/A,N/A,N/A,N/A,Clark and Allen
Environment:Daylight Saving,No,SizingPeriod:DesignDay
Environment,KODIAK NOVEMBER .4% CONDNS WB=>MCDB HVAC Sizing Pass 1,SizingPeriod:DesignDay,11/21,11/21,SummerDesignDay,1,N/A,N/A,N/A,N/A,N/A,N/A,Clark and Allen
Environment:Daylight Saving,No,SizingPeriod:DesignDay
Environment,KODIAK OCTOBER .4% CONDNS DB=>MCWB HVAC Sizing Pass 1,SizingPeriod:DesignDay,10/21,10/21,SummerDesignDay,1,N/A,N/A,N/A,N/A,N/A,N/A,Clark and Allen
Environment:Daylight Saving,No,SizingPeriod:DesignDay
Environment,KODIAK OCTOBER .4% CONDNS WB=>MCDB HVAC Sizing Pass 1,SizingPeriod:DesignDay,10/21,10/21,SummerDesignDay,1,N/A,N/A,N/A,N/A,N/A,N/A,Clark and Allen
Environment:Daylight Saving,No,SizingPeriod:DesignDay
Environment,KODIAK SEPTEMBER .4% CONDNS DB=>MCWB HVAC Sizing Pass 1,SizingPeriod:DesignDay,09/21,09/21,SummerDesignDay,1,N/A,N/A,N/A,N/A,N/A,N/A,Clark and Allen
Environment:Daylight Saving,No,SizingPeriod:DesignDay
Environment,KODIAK SEPTEMBER .4% CONDNS WB=>MCDB HVAC Sizing Pass 1,SizingPeriod:DesignDay,09/21,09/21,SummerDesignDay,1,N/A,N/A,N/A,N/A,N/A,N/A,Clark and Allen
Environment:Daylight Saving,No,SizingPeriod:DesignDay
! <Program Control Information:Threads/Parallel Sims>, Threading Supported,Maximum Number of Threads, Env Set Threads (OMP_NUM_THREADS), EP Env Set Threads (EP_OMP_NUM_THREADS), IDF Set Threads, Number of Threads Used (Interior Radiant Exchange), Number Nominal Surfaces, Number Parallel Sims
Program Control:Threads/Parallel Sims, No,1, N/A, N/A, N/A, N/A, N/A, N/A
End of Data
