Program Version,EnergyPlus, Version 22.2.0-aa78da9668, YMD=2023.06.21 17:25
! This file shows details about the branches, nodes, and other
! elements of the flow connections.
! This file is intended for use in "debugging" potential problems
! that may also be detected by the program, but may be more easily
! identified by "eye".
! This file is also intended to support software which draws a
! schematic diagram of the HVAC system.
! ===============================================================
! #Nodes,<Number of Unique Nodes>
 #Nodes,149
! <Node>,<NodeNumber>,<Node Name>,<Node Fluid Type>,<# Times Node Referenced After Definition>
 Node,1,ZONE WAREHOUSE FINE A  - STORY GROUND PSZ-AC DIFFUSER OUTLET AIR NODE,Air,4
 Node,2,ZONE WAREHOUSE FINE A  - STORY GROUND RETURN AIR NODE,Air,2
 Node,3,ZONE WAREHOUSE FINE A END_B - STORY GROUND PSZ-AC DIFFUSER OUTLET AIR NODE,Air,4
 Node,4,ZONE WAREHOUSE FINE A END_B - STORY GROUND RETURN AIR NODE,Air,2
 Node,5,ZONE WAREHOUSE FINE B  - STORY GROUND PSZ-AC DIFFUSER OUTLET AIR NODE,Air,4
 Node,6,ZONE WAREHOUSE FINE B  - STORY GROUND RETURN AIR NODE,Air,2
 Node,7,ZONE WAREHOUSE FINE B END_B - STORY GROUND PSZ-AC DIFFUSER OUTLET AIR NODE,Air,4
 Node,8,ZONE WAREHOUSE FINE B END_B - STORY GROUND RETURN AIR NODE,Air,2
 Node,9,ZONE WAREHOUSE FINE C  - STORY GROUND PSZ-AC DIFFUSER OUTLET AIR NODE,Air,4
 Node,10,ZONE WAREHOUSE FINE C  - STORY GROUND RETURN AIR NODE,Air,2
 Node,11,ZONE WAREHOUSE FINE C END_B - STORY GROUND PSZ-AC DIFFUSER OUTLET AIR NODE,Air,4
 Node,12,ZONE WAREHOUSE FINE C END_B - STORY GROUND RETURN AIR NODE,Air,2
 Node,13,ZONE WAREHOUSE OFFICE A  - STORY GROUND PSZ-AC DIFFUSER OUTLET AIR NODE,Air,4
 Node,14,ZONE WAREHOUSE OFFICE A  - STORY GROUND RETURN AIR NODE,Air,2
 Node,15,ZONE WAREHOUSE OFFICE B  - STORY GROUND PSZ-AC DIFFUSER OUTLET AIR NODE,Air,4
 Node,16,ZONE WAREHOUSE OFFICE B  - STORY GROUND RETURN AIR NODE,Air,2
 Node,17,ZONE WAREHOUSE OFFICE C  - STORY GROUND PSZ-AC DIFFUSER OUTLET AIR NODE,Air,4
 Node,18,ZONE WAREHOUSE OFFICE C  - STORY GROUND RETURN AIR NODE,Air,2
 Node,19,ZONE WAREHOUSE FINE A  - STORY GROUND PSZ-AC SUPPLY OUTLET NODE,Air,6
 Node,20,ZONE WAREHOUSE FINE A  - STORY GROUND PSZ-AC DEMAND INLET NODE,Air,3
 Node,21,ZONE WAREHOUSE FINE A END_B - STORY GROUND PSZ-AC SUPPLY OUTLET NODE,Air,6
 Node,22,ZONE WAREHOUSE FINE A END_B - STORY GROUND PSZ-AC DEMAND INLET NODE,Air,3
 Node,23,ZONE WAREHOUSE FINE B  - STORY GROUND PSZ-AC SUPPLY OUTLET NODE,Air,6
 Node,24,ZONE WAREHOUSE FINE B  - STORY GROUND PSZ-AC DEMAND INLET NODE,Air,3
 Node,25,ZONE WAREHOUSE FINE B END_B - STORY GROUND PSZ-AC SUPPLY OUTLET NODE,Air,6
 Node,26,ZONE WAREHOUSE FINE B END_B - STORY GROUND PSZ-AC DEMAND INLET NODE,Air,3
 Node,27,ZONE WAREHOUSE FINE C  - STORY GROUND PSZ-AC SUPPLY OUTLET NODE,Air,6
 Node,28,ZONE WAREHOUSE FINE C  - STORY GROUND PSZ-AC DEMAND INLET NODE,Air,3
 Node,29,ZONE WAREHOUSE FINE C END_B - STORY GROUND PSZ-AC SUPPLY OUTLET NODE,Air,6
 Node,30,ZONE WAREHOUSE FINE C END_B - STORY GROUND PSZ-AC DEMAND INLET NODE,Air,3
 Node,31,ZONE WAREHOUSE OFFICE A  - STORY GROUND PSZ-AC SUPPLY OUTLET NODE,Air,6
 Node,32,ZONE WAREHOUSE OFFICE A  - STORY GROUND PSZ-AC DEMAND INLET NODE,Air,3
 Node,33,ZONE WAREHOUSE OFFICE B  - STORY GROUND PSZ-AC SUPPLY OUTLET NODE,Air,6
 Node,34,ZONE WAREHOUSE OFFICE B  - STORY GROUND PSZ-AC DEMAND INLET NODE,Air,3
 Node,35,ZONE WAREHOUSE OFFICE C  - STORY GROUND PSZ-AC SUPPLY OUTLET NODE,Air,6
 Node,36,ZONE WAREHOUSE OFFICE C  - STORY GROUND PSZ-AC DEMAND INLET NODE,Air,3
 Node,37,ZONE WAREHOUSE FINE A  - STORY GROUND PSZ-AC SUPPLY INLET NODE,Air,3
 Node,38,ZONE WAREHOUSE FINE A  - STORY GROUND PSZ-AC MIXED AIR NODE,Air,6
 Node,39,ZONE WAREHOUSE FINE A END_B - STORY GROUND PSZ-AC SUPPLY INLET NODE,Air,3
 Node,40,ZONE WAREHOUSE FINE A END_B - STORY GROUND PSZ-AC MIXED AIR NODE,Air,6
 Node,41,ZONE WAREHOUSE FINE B  - STORY GROUND PSZ-AC SUPPLY INLET NODE,Air,3
 Node,42,ZONE WAREHOUSE FINE B  - STORY GROUND PSZ-AC MIXED AIR NODE,Air,6
 Node,43,ZONE WAREHOUSE FINE B END_B - STORY GROUND PSZ-AC SUPPLY INLET NODE,Air,3
 Node,44,ZONE WAREHOUSE FINE B END_B - STORY GROUND PSZ-AC MIXED AIR NODE,Air,6
 Node,45,ZONE WAREHOUSE FINE C  - STORY GROUND PSZ-AC SUPPLY INLET NODE,Air,3
 Node,46,ZONE WAREHOUSE FINE C  - STORY GROUND PSZ-AC MIXED AIR NODE,Air,6
 Node,47,ZONE WAREHOUSE FINE C END_B - STORY GROUND PSZ-AC SUPPLY INLET NODE,Air,3
 Node,48,ZONE WAREHOUSE FINE C END_B - STORY GROUND PSZ-AC MIXED AIR NODE,Air,6
 Node,49,ZONE WAREHOUSE OFFICE A  - STORY GROUND PSZ-AC SUPPLY INLET NODE,Air,3
 Node,50,ZONE WAREHOUSE OFFICE A  - STORY GROUND PSZ-AC MIXED AIR NODE,Air,6
 Node,51,ZONE WAREHOUSE OFFICE B  - STORY GROUND PSZ-AC SUPPLY INLET NODE,Air,3
 Node,52,ZONE WAREHOUSE OFFICE B  - STORY GROUND PSZ-AC MIXED AIR NODE,Air,6
 Node,53,ZONE WAREHOUSE OFFICE C  - STORY GROUND PSZ-AC SUPPLY INLET NODE,Air,3
 Node,54,ZONE WAREHOUSE OFFICE C  - STORY GROUND PSZ-AC MIXED AIR NODE,Air,6
 Node,55,MAIN SERVICE WATER LOOP SUPPLY INLET NODE,Water,2
 Node,56,MAIN SERVICE WATER LOOP WATER MAINS PRESSURE DRIVEN OUTLET WATER NODE,Water,1
 Node,57,40GAL ELECTRICITY WATER HEATER - 40KBTU/HR 1.0 THERM EFF SUPPLY INLET WATER NODE,Water,1
 Node,58,40GAL ELECTRICITY WATER HEATER - 40KBTU/HR 1.0 THERM EFF SUPPLY OUTLET WATER NODE,Water,1
 Node,59,PIPE ADIABATIC 1 INLET WATER NODE,Water,1
 Node,60,PIPE ADIABATIC 1 OUTLET WATER NODE,Water,1
 Node,61,PIPE ADIABATIC 3 INLET WATER NODE,Water,1
 Node,62,MAIN SERVICE WATER LOOP SUPPLY OUTLET NODE,Water,4
 Node,63,MAIN SERVICE WATER LOOP DEMAND INLET NODE,Water,2
 Node,64,MAIN SERVICE WATER LOOP DEMAND INLET PIPE NODE,Water,1
 Node,65,PIPE ADIABATIC 2 INLET WATER NODE,Water,1
 Node,66,PIPE ADIABATIC 2 OUTLET WATER NODE,Water,1
 Node,67,MAIN SERVICE WATER LOOP DEMAND BYPASS PIPE INLET NODE,Water,1
 Node,68,MAIN SERVICE WATER LOOP DEMAND BYPASS PIPE OUTLET NODE,Water,1
 Node,69,PIPE ADIABATIC 4 INLET WATER NODE,Water,1
 Node,70,MAIN SERVICE WATER LOOP DEMAND OUTLET NODE,Water,2
 Node,71,ZONE WAREHOUSE BULK A  - STORY GROUND ZONE AIR NODE,Air,0
 Node,72,ZONE WAREHOUSE BULK A END_A - STORY GROUND ZONE AIR NODE,Air,0
 Node,73,ZONE WAREHOUSE BULK B  - STORY GROUND ZONE AIR NODE,Air,0
 Node,74,ZONE WAREHOUSE BULK B END_A - STORY GROUND ZONE AIR NODE,Air,0
 Node,75,ZONE WAREHOUSE BULK C  - STORY GROUND ZONE AIR NODE,Air,0
 Node,76,ZONE WAREHOUSE BULK C END_A - STORY GROUND ZONE AIR NODE,Air,0
 Node,77,ZONE WAREHOUSE FINE A  - STORY GROUND ZONE AIR NODE,Air,1
 Node,78,ZONE WAREHOUSE FINE A END_B - STORY GROUND ZONE AIR NODE,Air,1
 Node,79,ZONE WAREHOUSE FINE B  - STORY GROUND ZONE AIR NODE,Air,1
 Node,80,ZONE WAREHOUSE FINE B END_B - STORY GROUND ZONE AIR NODE,Air,1
 Node,81,ZONE WAREHOUSE FINE C  - STORY GROUND ZONE AIR NODE,Air,1
 Node,82,ZONE WAREHOUSE FINE C END_B - STORY GROUND ZONE AIR NODE,Air,1
 Node,83,ZONE WAREHOUSE OFFICE A  - STORY GROUND ZONE AIR NODE,Air,1
 Node,84,ZONE WAREHOUSE OFFICE B  - STORY GROUND ZONE AIR NODE,Air,1
 Node,85,ZONE WAREHOUSE OFFICE C  - STORY GROUND ZONE AIR NODE,Air,1
 Node,86,ZONE WAREHOUSE FINE A  - STORY GROUND PSZ-AC DEMAND OUTLET NODE,Air,2
 Node,87,ZONE WAREHOUSE FINE A END_B - STORY GROUND PSZ-AC DEMAND OUTLET NODE,Air,2
 Node,88,ZONE WAREHOUSE FINE B  - STORY GROUND PSZ-AC DEMAND OUTLET NODE,Air,2
 Node,89,ZONE WAREHOUSE FINE B END_B - STORY GROUND PSZ-AC DEMAND OUTLET NODE,Air,2
 Node,90,ZONE WAREHOUSE FINE C  - STORY GROUND PSZ-AC DEMAND OUTLET NODE,Air,2
 Node,91,ZONE WAREHOUSE FINE C END_B - STORY GROUND PSZ-AC DEMAND OUTLET NODE,Air,2
 Node,92,ZONE WAREHOUSE OFFICE A  - STORY GROUND PSZ-AC DEMAND OUTLET NODE,Air,2
 Node,93,ZONE WAREHOUSE OFFICE B  - STORY GROUND PSZ-AC DEMAND OUTLET NODE,Air,2
 Node,94,ZONE WAREHOUSE OFFICE C  - STORY GROUND PSZ-AC DEMAND OUTLET NODE,Air,2
 Node,95,ZONE WAREHOUSE FINE A  - STORY GROUND PSZ-AC OUTDOOR AIR NODE,Air,2
 Node,96,ZONE WAREHOUSE FINE A END_B - STORY GROUND PSZ-AC OUTDOOR AIR NODE,Air,2
 Node,97,ZONE WAREHOUSE FINE B  - STORY GROUND PSZ-AC OUTDOOR AIR NODE,Air,2
 Node,98,ZONE WAREHOUSE FINE B END_B - STORY GROUND PSZ-AC OUTDOOR AIR NODE,Air,2
 Node,99,ZONE WAREHOUSE FINE C  - STORY GROUND PSZ-AC OUTDOOR AIR NODE,Air,2
 Node,100,ZONE WAREHOUSE FINE C END_B - STORY GROUND PSZ-AC OUTDOOR AIR NODE,Air,2
 Node,101,ZONE WAREHOUSE OFFICE A  - STORY GROUND PSZ-AC OUTDOOR AIR NODE,Air,2
 Node,102,ZONE WAREHOUSE OFFICE B  - STORY GROUND PSZ-AC OUTDOOR AIR NODE,Air,2
 Node,103,ZONE WAREHOUSE OFFICE C  - STORY GROUND PSZ-AC OUTDOOR AIR NODE,Air,2
 Node,104,MODEL OUTDOOR AIR NODE,Air,0
 Node,105,ZONE WAREHOUSE FINE A  - STORY GROUND PSZ-AC UNITARY AC HEATING COIL - FAN NODE,Air,2
 Node,106,ZONE WAREHOUSE FINE A  - STORY GROUND PSZ-AC UNITARY AC FAN - SUPPLEMENTAL COIL NODE,Air,2
 Node,107,ZONE WAREHOUSE FINE A END_B - STORY GROUND PSZ-AC UNITARY AC HEATING COIL - FAN NODE,Air,2
 Node,108,ZONE WAREHOUSE FINE A END_B - STORY GROUND PSZ-AC UNITARY AC FAN - SUPPLEMENTAL COIL NODE,Air,2
 Node,109,ZONE WAREHOUSE FINE B  - STORY GROUND PSZ-AC UNITARY AC HEATING COIL - FAN NODE,Air,2
 Node,110,ZONE WAREHOUSE FINE B  - STORY GROUND PSZ-AC UNITARY AC FAN - SUPPLEMENTAL COIL NODE,Air,2
 Node,111,ZONE WAREHOUSE FINE B END_B - STORY GROUND PSZ-AC UNITARY AC HEATING COIL - FAN NODE,Air,2
 Node,112,ZONE WAREHOUSE FINE B END_B - STORY GROUND PSZ-AC UNITARY AC FAN - SUPPLEMENTAL COIL NODE,Air,2
 Node,113,ZONE WAREHOUSE FINE C  - STORY GROUND PSZ-AC UNITARY AC HEATING COIL - FAN NODE,Air,2
 Node,114,ZONE WAREHOUSE FINE C  - STORY GROUND PSZ-AC UNITARY AC FAN - SUPPLEMENTAL COIL NODE,Air,2
 Node,115,ZONE WAREHOUSE FINE C END_B - STORY GROUND PSZ-AC UNITARY AC HEATING COIL - FAN NODE,Air,2
 Node,116,ZONE WAREHOUSE FINE C END_B - STORY GROUND PSZ-AC UNITARY AC FAN - SUPPLEMENTAL COIL NODE,Air,2
 Node,117,ZONE WAREHOUSE OFFICE A  - STORY GROUND PSZ-AC UNITARY AC HEATING COIL - FAN NODE,Air,2
 Node,118,ZONE WAREHOUSE OFFICE A  - STORY GROUND PSZ-AC UNITARY AC FAN - SUPPLEMENTAL COIL NODE,Air,2
 Node,119,ZONE WAREHOUSE OFFICE B  - STORY GROUND PSZ-AC UNITARY AC HEATING COIL - FAN NODE,Air,2
 Node,120,ZONE WAREHOUSE OFFICE B  - STORY GROUND PSZ-AC UNITARY AC FAN - SUPPLEMENTAL COIL NODE,Air,2
 Node,121,ZONE WAREHOUSE OFFICE C  - STORY GROUND PSZ-AC UNITARY AC HEATING COIL - FAN NODE,Air,2
 Node,122,ZONE WAREHOUSE OFFICE C  - STORY GROUND PSZ-AC UNITARY AC FAN - SUPPLEMENTAL COIL NODE,Air,2
 Node,123,ZONE WAREHOUSE FINE A  - STORY GROUND PSZ-AC DIFFUSER INLET AIR NODE,Air,1
 Node,124,ZONE WAREHOUSE FINE A END_B - STORY GROUND PSZ-AC DIFFUSER INLET AIR NODE,Air,1
 Node,125,ZONE WAREHOUSE FINE B  - STORY GROUND PSZ-AC DIFFUSER INLET AIR NODE,Air,1
 Node,126,ZONE WAREHOUSE FINE B END_B - STORY GROUND PSZ-AC DIFFUSER INLET AIR NODE,Air,1
 Node,127,ZONE WAREHOUSE FINE C  - STORY GROUND PSZ-AC DIFFUSER INLET AIR NODE,Air,1
 Node,128,ZONE WAREHOUSE FINE C END_B - STORY GROUND PSZ-AC DIFFUSER INLET AIR NODE,Air,1
 Node,129,ZONE WAREHOUSE OFFICE A  - STORY GROUND PSZ-AC DIFFUSER INLET AIR NODE,Air,1
 Node,130,ZONE WAREHOUSE OFFICE B  - STORY GROUND PSZ-AC DIFFUSER INLET AIR NODE,Air,1
 Node,131,ZONE WAREHOUSE OFFICE C  - STORY GROUND PSZ-AC DIFFUSER INLET AIR NODE,Air,1
 Node,132,ZONE WAREHOUSE FINE A  - STORY GROUND PSZ-AC RELIEF AIR NODE,Air,1
 Node,133,ZONE WAREHOUSE FINE A END_B - STORY GROUND PSZ-AC RELIEF AIR NODE,Air,1
 Node,134,ZONE WAREHOUSE FINE B  - STORY GROUND PSZ-AC RELIEF AIR NODE,Air,1
 Node,135,ZONE WAREHOUSE FINE B END_B - STORY GROUND PSZ-AC RELIEF AIR NODE,Air,1
 Node,136,ZONE WAREHOUSE FINE C  - STORY GROUND PSZ-AC RELIEF AIR NODE,Air,1
 Node,137,ZONE WAREHOUSE FINE C END_B - STORY GROUND PSZ-AC RELIEF AIR NODE,Air,1
 Node,138,ZONE WAREHOUSE OFFICE A  - STORY GROUND PSZ-AC RELIEF AIR NODE,Air,1
 Node,139,ZONE WAREHOUSE OFFICE B  - STORY GROUND PSZ-AC RELIEF AIR NODE,Air,1
 Node,140,ZONE WAREHOUSE OFFICE C  - STORY GROUND PSZ-AC RELIEF AIR NODE,Air,1
 Node,141,ZONE WAREHOUSE FINE A  - STORY GROUND PSZ-AC UNITARY AC COOLING COIL - HEATING COIL NODE,Air,1
 Node,142,ZONE WAREHOUSE FINE A END_B - STORY GROUND PSZ-AC UNITARY AC COOLING COIL - HEATING COIL NODE,Air,1
 Node,143,ZONE WAREHOUSE FINE B  - STORY GROUND PSZ-AC UNITARY AC COOLING COIL - HEATING COIL NODE,Air,1
 Node,144,ZONE WAREHOUSE FINE B END_B - STORY GROUND PSZ-AC UNITARY AC COOLING COIL - HEATING COIL NODE,Air,1
 Node,145,ZONE WAREHOUSE FINE C  - STORY GROUND PSZ-AC UNITARY AC COOLING COIL - HEATING COIL NODE,Air,1
 Node,146,ZONE WAREHOUSE FINE C END_B - STORY GROUND PSZ-AC UNITARY AC COOLING COIL - HEATING COIL NODE,Air,1
 Node,147,ZONE WAREHOUSE OFFICE A  - STORY GROUND PSZ-AC UNITARY AC COOLING COIL - HEATING COIL NODE,Air,1
 Node,148,ZONE WAREHOUSE OFFICE B  - STORY GROUND PSZ-AC UNITARY AC COOLING COIL - HEATING COIL NODE,Air,1
 Node,149,ZONE WAREHOUSE OFFICE C  - STORY GROUND PSZ-AC UNITARY AC COOLING COIL - HEATING COIL NODE,Air,1
! ===============================================================
! Suspicious nodes have 0 references.  It is normal for some nodes, however.
! Listing nodes with 0 references (culled from previous list):
! <Suspicious Node>,<NodeNumber>,<Node Name>,<Node Fluid Type>,<# Times Node Referenced After Definition>
 Suspicious Node,71,ZONE WAREHOUSE BULK A  - STORY GROUND ZONE AIR NODE,Air,0
 Suspicious Node,72,ZONE WAREHOUSE BULK A END_A - STORY GROUND ZONE AIR NODE,Air,0
 Suspicious Node,73,ZONE WAREHOUSE BULK B  - STORY GROUND ZONE AIR NODE,Air,0
 Suspicious Node,74,ZONE WAREHOUSE BULK B END_A - STORY GROUND ZONE AIR NODE,Air,0
 Suspicious Node,75,ZONE WAREHOUSE BULK C  - STORY GROUND ZONE AIR NODE,Air,0
 Suspicious Node,76,ZONE WAREHOUSE BULK C END_A - STORY GROUND ZONE AIR NODE,Air,0
 Suspicious Node,104,MODEL OUTDOOR AIR NODE,Air,0
! ===============================================================
! <#Branch Lists>,<Number of Branch Lists>
 #Branch Lists,11
! <Branch List>,<Branch List Count>,<Branch List Name>,<Loop Name>,<Loop Type>,<Number of Branches>
! <Branch>,<Branch Count>,<Branch Name>,<Loop Name>,<Loop Type>,<Branch Inlet Node Name>,<Branch Outlet Node Name>
 Branch List,1,ZONE WAREHOUSE FINE A  - STORY GROUND PSZ-AC SUPPLY BRANCHES,ZONE WAREHOUSE FINE A  - STORY GROUND PSZ-AC,Air,1
   Branch,1,ZONE WAREHOUSE FINE A  - STORY GROUND PSZ-AC MAIN BRANCH,ZONE WAREHOUSE FINE A  - STORY GROUND PSZ-AC,Air,ZONE WAREHOUSE FINE A  - STORY GROUND PSZ-AC SUPPLY INLET NODE,ZONE WAREHOUSE FINE A  - STORY GROUND PSZ-AC SUPPLY OUTLET NODE
 Branch List,2,ZONE WAREHOUSE FINE A END_B - STORY GROUND PSZ-AC SUPPLY BRANCHES,ZONE WAREHOUSE FINE A END_B - STORY GROUND PSZ-AC,Air,1
   Branch,1,ZONE WAREHOUSE FINE A END_B - STORY GROUND PSZ-AC MAIN BRANCH,ZONE WAREHOUSE FINE A END_B - STORY GROUND PSZ-AC,Air,ZONE WAREHOUSE FINE A END_B - STORY GROUND PSZ-AC SUPPLY INLET NODE,ZONE WAREHOUSE FINE A END_B - STORY GROUND PSZ-AC SUPPLY OUTLET NODE
 Branch List,3,ZONE WAREHOUSE FINE B  - STORY GROUND PSZ-AC SUPPLY BRANCHES,ZONE WAREHOUSE FINE B  - STORY GROUND PSZ-AC,Air,1
   Branch,1,ZONE WAREHOUSE FINE B  - STORY GROUND PSZ-AC MAIN BRANCH,ZONE WAREHOUSE FINE B  - STORY GROUND PSZ-AC,Air,ZONE WAREHOUSE FINE B  - STORY GROUND PSZ-AC SUPPLY INLET NODE,ZONE WAREHOUSE FINE B  - STORY GROUND PSZ-AC SUPPLY OUTLET NODE
 Branch List,4,ZONE WAREHOUSE FINE B END_B - STORY GROUND PSZ-AC SUPPLY BRANCHES,ZONE WAREHOUSE FINE B END_B - STORY GROUND PSZ-AC,Air,1
   Branch,1,ZONE WAREHOUSE FINE B END_B - STORY GROUND PSZ-AC MAIN BRANCH,ZONE WAREHOUSE FINE B END_B - STORY GROUND PSZ-AC,Air,ZONE WAREHOUSE FINE B END_B - STORY GROUND PSZ-AC SUPPLY INLET NODE,ZONE WAREHOUSE FINE B END_B - STORY GROUND PSZ-AC SUPPLY OUTLET NODE
 Branch List,5,ZONE WAREHOUSE FINE C  - STORY GROUND PSZ-AC SUPPLY BRANCHES,ZONE WAREHOUSE FINE C  - STORY GROUND PSZ-AC,Air,1
   Branch,1,ZONE WAREHOUSE FINE C  - STORY GROUND PSZ-AC MAIN BRANCH,ZONE WAREHOUSE FINE C  - STORY GROUND PSZ-AC,Air,ZONE WAREHOUSE FINE C  - STORY GROUND PSZ-AC SUPPLY INLET NODE,ZONE WAREHOUSE FINE C  - STORY GROUND PSZ-AC SUPPLY OUTLET NODE
 Branch List,6,ZONE WAREHOUSE FINE C END_B - STORY GROUND PSZ-AC SUPPLY BRANCHES,ZONE WAREHOUSE FINE C END_B - STORY GROUND PSZ-AC,Air,1
   Branch,1,ZONE WAREHOUSE FINE C END_B - STORY GROUND PSZ-AC MAIN BRANCH,ZONE WAREHOUSE FINE C END_B - STORY GROUND PSZ-AC,Air,ZONE WAREHOUSE FINE C END_B - STORY GROUND PSZ-AC SUPPLY INLET NODE,ZONE WAREHOUSE FINE C END_B - STORY GROUND PSZ-AC SUPPLY OUTLET NODE
 Branch List,7,ZONE WAREHOUSE OFFICE A  - STORY GROUND PSZ-AC SUPPLY BRANCHES,ZONE WAREHOUSE OFFICE A  - STORY GROUND PSZ-AC,Air,1
   Branch,1,ZONE WAREHOUSE OFFICE A  - STORY GROUND PSZ-AC MAIN BRANCH,ZONE WAREHOUSE OFFICE A  - STORY GROUND PSZ-AC,Air,ZONE WAREHOUSE OFFICE A  - STORY GROUND PSZ-AC SUPPLY INLET NODE,ZONE WAREHOUSE OFFICE A  - STORY GROUND PSZ-AC SUPPLY OUTLET NODE
 Branch List,8,ZONE WAREHOUSE OFFICE B  - STORY GROUND PSZ-AC SUPPLY BRANCHES,ZONE WAREHOUSE OFFICE B  - STORY GROUND PSZ-AC,Air,1
   Branch,1,ZONE WAREHOUSE OFFICE B  - STORY GROUND PSZ-AC MAIN BRANCH,ZONE WAREHOUSE OFFICE B  - STORY GROUND PSZ-AC,Air,ZONE WAREHOUSE OFFICE B  - STORY GROUND PSZ-AC SUPPLY INLET NODE,ZONE WAREHOUSE OFFICE B  - STORY GROUND PSZ-AC SUPPLY OUTLET NODE
 Branch List,9,ZONE WAREHOUSE OFFICE C  - STORY GROUND PSZ-AC SUPPLY BRANCHES,ZONE WAREHOUSE OFFICE C  - STORY GROUND PSZ-AC,Air,1
   Branch,1,ZONE WAREHOUSE OFFICE C  - STORY GROUND PSZ-AC MAIN BRANCH,ZONE WAREHOUSE OFFICE C  - STORY GROUND PSZ-AC,Air,ZONE WAREHOUSE OFFICE C  - STORY GROUND PSZ-AC SUPPLY INLET NODE,ZONE WAREHOUSE OFFICE C  - STORY GROUND PSZ-AC SUPPLY OUTLET NODE
 Branch List,10,MAIN SERVICE WATER LOOP SUPPLY BRANCHES,MAIN SERVICE WATER LOOP,Plant Supply,4
   Branch,1,MAIN SERVICE WATER LOOP SUPPLY INLET BRANCH,MAIN SERVICE WATER LOOP,Plant Supply,MAIN SERVICE WATER LOOP SUPPLY INLET NODE,MAIN SERVICE WATER LOOP WATER MAINS PRESSURE DRIVEN OUTLET WATER NODE
   Branch,2,MAIN SERVICE WATER LOOP SUPPLY BRANCH 1,MAIN SERVICE WATER LOOP,Plant Supply,40GAL ELECTRICITY WATER HEATER - 40KBTU/HR 1.0 THERM EFF SUPPLY INLET WATER NODE,40GAL ELECTRICITY WATER HEATER - 40KBTU/HR 1.0 THERM EFF SUPPLY OUTLET WATER NODE
   Branch,3,MAIN SERVICE WATER LOOP SUPPLY BRANCH 2,MAIN SERVICE WATER LOOP,Plant Supply,PIPE ADIABATIC 1 INLET WATER NODE,PIPE ADIABATIC 1 OUTLET WATER NODE
   Branch,4,MAIN SERVICE WATER LOOP SUPPLY OUTLET BRANCH,MAIN SERVICE WATER LOOP,Plant Supply,PIPE ADIABATIC 3 INLET WATER NODE,MAIN SERVICE WATER LOOP SUPPLY OUTLET NODE
 Branch List,11,MAIN SERVICE WATER LOOP DEMAND BRANCHES,MAIN SERVICE WATER LOOP,Plant Demand,4
   Branch,1,MAIN SERVICE WATER LOOP DEMAND INLET BRANCH,MAIN SERVICE WATER LOOP,Plant Demand,MAIN SERVICE WATER LOOP DEMAND INLET NODE,MAIN SERVICE WATER LOOP DEMAND INLET PIPE NODE
   Branch,2,MAIN SERVICE WATER LOOP DEMAND BRANCH 1,MAIN SERVICE WATER LOOP,Plant Demand,PIPE ADIABATIC 2 INLET WATER NODE,PIPE ADIABATIC 2 OUTLET WATER NODE
   Branch,3,MAIN SERVICE WATER LOOP DEMAND BYPASS BRANCH,MAIN SERVICE WATER LOOP,Plant Demand,MAIN SERVICE WATER LOOP DEMAND BYPASS PIPE INLET NODE,MAIN SERVICE WATER LOOP DEMAND BYPASS PIPE OUTLET NODE
   Branch,4,MAIN SERVICE WATER LOOP DEMAND OUTLET BRANCH,MAIN SERVICE WATER LOOP,Plant Demand,PIPE ADIABATIC 4 INLET WATER NODE,MAIN SERVICE WATER LOOP DEMAND OUTLET NODE
! ===============================================================
! <#Supply Air Paths>,<Number of Supply Air Paths>
 #Supply Air Paths,9
! <Supply Air Path>,<Supply Air Path Count>,<Supply Air Path Name>,<AirLoopHVAC Name>
! <#Components on Supply Air Path>,<Number of Components>
! <Supply Air Path Component>,<Component Count>,<Component Type>,<Component Name>,<AirLoopHVAC Name>
! <#Outlet Nodes on Supply Air Path Component>,<Number of Nodes>
! <Supply Air Path Component Nodes>,<Node Count>,<Component Type>,<Component Name>,<Inlet Node Name>,<Outlet Node Name>,<AirLoopHVAC Name>
 Supply Air Path,1,ZONE WAREHOUSE FINE A  - STORY GROUND PSZ-AC ZONE WAREHOUSE FINE A  - STORY GROUND PSZ-AC DEMAND INLET NODE SUPPLY PATH,ZONE WAREHOUSE FINE A  - STORY GROUND PSZ-AC
   #Components on Supply Air Path,1
   Supply Air Path Component,1,AIRLOOPHVAC:ZONESPLITTER,AIR LOOP HVAC ZONE SPLITTER 1,ZONE WAREHOUSE FINE A  - STORY GROUND PSZ-AC
     #Outlet Nodes on Supply Air Path Component,1
     Supply Air Path Component Nodes,1,AIRLOOPHVAC:ZONESPLITTER,AIR LOOP HVAC ZONE SPLITTER 1,ZONE WAREHOUSE FINE A  - STORY GROUND PSZ-AC DEMAND INLET NODE,ZONE WAREHOUSE FINE A  - STORY GROUND PSZ-AC DIFFUSER INLET AIR NODE,ZONE WAREHOUSE FINE A  - STORY GROUND PSZ-AC
! <#Nodes on Supply Air Path>,<Number of Nodes>
! <Supply Air Path Node>,<Node Type>,<Node Count>,<Node Name>,<AirLoopHVAC Name>
#Nodes on Supply Air Path,2
   Supply Air Path Node,Inlet Node,1,ZONE WAREHOUSE FINE A  - STORY GROUND PSZ-AC DEMAND INLET NODE,ZONE WAREHOUSE FINE A  - STORY GROUND PSZ-AC
   Supply Air Path Node,Outlet Node,2,ZONE WAREHOUSE FINE A  - STORY GROUND PSZ-AC DIFFUSER INLET AIR NODE,ZONE WAREHOUSE FINE A  - STORY GROUND PSZ-AC
 Supply Air Path,2,ZONE WAREHOUSE FINE A END_B - STORY GROUND PSZ-AC ZONE WAREHOUSE FINE A END_B - STORY GROUND PSZ-AC DEMAND INLET NODE SUPPLY PATH,ZONE WAREHOUSE FINE A END_B - STORY GROUND PSZ-AC
   #Components on Supply Air Path,1
   Supply Air Path Component,1,AIRLOOPHVAC:ZONESPLITTER,AIR LOOP HVAC ZONE SPLITTER 2,ZONE WAREHOUSE FINE A END_B - STORY GROUND PSZ-AC
     #Outlet Nodes on Supply Air Path Component,1
     Supply Air Path Component Nodes,1,AIRLOOPHVAC:ZONESPLITTER,AIR LOOP HVAC ZONE SPLITTER 2,ZONE WAREHOUSE FINE A END_B - STORY GROUND PSZ-AC DEMAND INLET NODE,ZONE WAREHOUSE FINE A END_B - STORY GROUND PSZ-AC DIFFUSER INLET AIR NODE,ZONE WAREHOUSE FINE A END_B - STORY GROUND PSZ-AC
! <#Nodes on Supply Air Path>,<Number of Nodes>
! <Supply Air Path Node>,<Node Type>,<Node Count>,<Node Name>,<AirLoopHVAC Name>
#Nodes on Supply Air Path,2
   Supply Air Path Node,Inlet Node,1,ZONE WAREHOUSE FINE A END_B - STORY GROUND PSZ-AC DEMAND INLET NODE,ZONE WAREHOUSE FINE A END_B - STORY GROUND PSZ-AC
   Supply Air Path Node,Outlet Node,2,ZONE WAREHOUSE FINE A END_B - STORY GROUND PSZ-AC DIFFUSER INLET AIR NODE,ZONE WAREHOUSE FINE A END_B - STORY GROUND PSZ-AC
 Supply Air Path,3,ZONE WAREHOUSE FINE B  - STORY GROUND PSZ-AC ZONE WAREHOUSE FINE B  - STORY GROUND PSZ-AC DEMAND INLET NODE SUPPLY PATH,ZONE WAREHOUSE FINE B  - STORY GROUND PSZ-AC
   #Components on Supply Air Path,1
   Supply Air Path Component,1,AIRLOOPHVAC:ZONESPLITTER,AIR LOOP HVAC ZONE SPLITTER 3,ZONE WAREHOUSE FINE B  - STORY GROUND PSZ-AC
     #Outlet Nodes on Supply Air Path Component,1
     Supply Air Path Component Nodes,1,AIRLOOPHVAC:ZONESPLITTER,AIR LOOP HVAC ZONE SPLITTER 3,ZONE WAREHOUSE FINE B  - STORY GROUND PSZ-AC DEMAND INLET NODE,ZONE WAREHOUSE FINE B  - STORY GROUND PSZ-AC DIFFUSER INLET AIR NODE,ZONE WAREHOUSE FINE B  - STORY GROUND PSZ-AC
! <#Nodes on Supply Air Path>,<Number of Nodes>
! <Supply Air Path Node>,<Node Type>,<Node Count>,<Node Name>,<AirLoopHVAC Name>
#Nodes on Supply Air Path,2
   Supply Air Path Node,Inlet Node,1,ZONE WAREHOUSE FINE B  - STORY GROUND PSZ-AC DEMAND INLET NODE,ZONE WAREHOUSE FINE B  - STORY GROUND PSZ-AC
   Supply Air Path Node,Outlet Node,2,ZONE WAREHOUSE FINE B  - STORY GROUND PSZ-AC DIFFUSER INLET AIR NODE,ZONE WAREHOUSE FINE B  - STORY GROUND PSZ-AC
 Supply Air Path,4,ZONE WAREHOUSE FINE B END_B - STORY GROUND PSZ-AC ZONE WAREHOUSE FINE B END_B - STORY GROUND PSZ-AC DEMAND INLET NODE SUPPLY PATH,ZONE WAREHOUSE FINE B END_B - STORY GROUND PSZ-AC
   #Components on Supply Air Path,1
   Supply Air Path Component,1,AIRLOOPHVAC:ZONESPLITTER,AIR LOOP HVAC ZONE SPLITTER 4,ZONE WAREHOUSE FINE B END_B - STORY GROUND PSZ-AC
     #Outlet Nodes on Supply Air Path Component,1
     Supply Air Path Component Nodes,1,AIRLOOPHVAC:ZONESPLITTER,AIR LOOP HVAC ZONE SPLITTER 4,ZONE WAREHOUSE FINE B END_B - STORY GROUND PSZ-AC DEMAND INLET NODE,ZONE WAREHOUSE FINE B END_B - STORY GROUND PSZ-AC DIFFUSER INLET AIR NODE,ZONE WAREHOUSE FINE B END_B - STORY GROUND PSZ-AC
! <#Nodes on Supply Air Path>,<Number of Nodes>
! <Supply Air Path Node>,<Node Type>,<Node Count>,<Node Name>,<AirLoopHVAC Name>
#Nodes on Supply Air Path,2
   Supply Air Path Node,Inlet Node,1,ZONE WAREHOUSE FINE B END_B - STORY GROUND PSZ-AC DEMAND INLET NODE,ZONE WAREHOUSE FINE B END_B - STORY GROUND PSZ-AC
   Supply Air Path Node,Outlet Node,2,ZONE WAREHOUSE FINE B END_B - STORY GROUND PSZ-AC DIFFUSER INLET AIR NODE,ZONE WAREHOUSE FINE B END_B - STORY GROUND PSZ-AC
 Supply Air Path,5,ZONE WAREHOUSE FINE C  - STORY GROUND PSZ-AC ZONE WAREHOUSE FINE C  - STORY GROUND PSZ-AC DEMAND INLET NODE SUPPLY PATH,ZONE WAREHOUSE FINE C  - STORY GROUND PSZ-AC
   #Components on Supply Air Path,1
   Supply Air Path Component,1,AIRLOOPHVAC:ZONESPLITTER,AIR LOOP HVAC ZONE SPLITTER 5,ZONE WAREHOUSE FINE C  - STORY GROUND PSZ-AC
     #Outlet Nodes on Supply Air Path Component,1
     Supply Air Path Component Nodes,1,AIRLOOPHVAC:ZONESPLITTER,AIR LOOP HVAC ZONE SPLITTER 5,ZONE WAREHOUSE FINE C  - STORY GROUND PSZ-AC DEMAND INLET NODE,ZONE WAREHOUSE FINE C  - STORY GROUND PSZ-AC DIFFUSER INLET AIR NODE,ZONE WAREHOUSE FINE C  - STORY GROUND PSZ-AC
! <#Nodes on Supply Air Path>,<Number of Nodes>
! <Supply Air Path Node>,<Node Type>,<Node Count>,<Node Name>,<AirLoopHVAC Name>
#Nodes on Supply Air Path,2
   Supply Air Path Node,Inlet Node,1,ZONE WAREHOUSE FINE C  - STORY GROUND PSZ-AC DEMAND INLET NODE,ZONE WAREHOUSE FINE C  - STORY GROUND PSZ-AC
   Supply Air Path Node,Outlet Node,2,ZONE WAREHOUSE FINE C  - STORY GROUND PSZ-AC DIFFUSER INLET AIR NODE,ZONE WAREHOUSE FINE C  - STORY GROUND PSZ-AC
 Supply Air Path,6,ZONE WAREHOUSE FINE C END_B - STORY GROUND PSZ-AC ZONE WAREHOUSE FINE C END_B - STORY GROUND PSZ-AC DEMAND INLET NODE SUPPLY PATH,ZONE WAREHOUSE FINE C END_B - STORY GROUND PSZ-AC
   #Components on Supply Air Path,1
   Supply Air Path Component,1,AIRLOOPHVAC:ZONESPLITTER,AIR LOOP HVAC ZONE SPLITTER 6,ZONE WAREHOUSE FINE C END_B - STORY GROUND PSZ-AC
     #Outlet Nodes on Supply Air Path Component,1
     Supply Air Path Component Nodes,1,AIRLOOPHVAC:ZONESPLITTER,AIR LOOP HVAC ZONE SPLITTER 6,ZONE WAREHOUSE FINE C END_B - STORY GROUND PSZ-AC DEMAND INLET NODE,ZONE WAREHOUSE FINE C END_B - STORY GROUND PSZ-AC DIFFUSER INLET AIR NODE,ZONE WAREHOUSE FINE C END_B - STORY GROUND PSZ-AC
! <#Nodes on Supply Air Path>,<Number of Nodes>
! <Supply Air Path Node>,<Node Type>,<Node Count>,<Node Name>,<AirLoopHVAC Name>
#Nodes on Supply Air Path,2
   Supply Air Path Node,Inlet Node,1,ZONE WAREHOUSE FINE C END_B - STORY GROUND PSZ-AC DEMAND INLET NODE,ZONE WAREHOUSE FINE C END_B - STORY GROUND PSZ-AC
   Supply Air Path Node,Outlet Node,2,ZONE WAREHOUSE FINE C END_B - STORY GROUND PSZ-AC DIFFUSER INLET AIR NODE,ZONE WAREHOUSE FINE C END_B - STORY GROUND PSZ-AC
 Supply Air Path,7,ZONE WAREHOUSE OFFICE A  - STORY GROUND PSZ-AC ZONE WAREHOUSE OFFICE A  - STORY GROUND PSZ-AC DEMAND INLET NODE SUPPLY PATH,ZONE WAREHOUSE OFFICE A  - STORY GROUND PSZ-AC
   #Components on Supply Air Path,1
   Supply Air Path Component,1,AIRLOOPHVAC:ZONESPLITTER,AIR LOOP HVAC ZONE SPLITTER 7,ZONE WAREHOUSE OFFICE A  - STORY GROUND PSZ-AC
     #Outlet Nodes on Supply Air Path Component,1
     Supply Air Path Component Nodes,1,AIRLOOPHVAC:ZONESPLITTER,AIR LOOP HVAC ZONE SPLITTER 7,ZONE WAREHOUSE OFFICE A  - STORY GROUND PSZ-AC DEMAND INLET NODE,ZONE WAREHOUSE OFFICE A  - STORY GROUND PSZ-AC DIFFUSER INLET AIR NODE,ZONE WAREHOUSE OFFICE A  - STORY GROUND PSZ-AC
! <#Nodes on Supply Air Path>,<Number of Nodes>
! <Supply Air Path Node>,<Node Type>,<Node Count>,<Node Name>,<AirLoopHVAC Name>
#Nodes on Supply Air Path,2
   Supply Air Path Node,Inlet Node,1,ZONE WAREHOUSE OFFICE A  - STORY GROUND PSZ-AC DEMAND INLET NODE,ZONE WAREHOUSE OFFICE A  - STORY GROUND PSZ-AC
   Supply Air Path Node,Outlet Node,2,ZONE WAREHOUSE OFFICE A  - STORY GROUND PSZ-AC DIFFUSER INLET AIR NODE,ZONE WAREHOUSE OFFICE A  - STORY GROUND PSZ-AC
 Supply Air Path,8,ZONE WAREHOUSE OFFICE B  - STORY GROUND PSZ-AC ZONE WAREHOUSE OFFICE B  - STORY GROUND PSZ-AC DEMAND INLET NODE SUPPLY PATH,ZONE WAREHOUSE OFFICE B  - STORY GROUND PSZ-AC
   #Components on Supply Air Path,1
   Supply Air Path Component,1,AIRLOOPHVAC:ZONESPLITTER,AIR LOOP HVAC ZONE SPLITTER 8,ZONE WAREHOUSE OFFICE B  - STORY GROUND PSZ-AC
     #Outlet Nodes on Supply Air Path Component,1
     Supply Air Path Component Nodes,1,AIRLOOPHVAC:ZONESPLITTER,AIR LOOP HVAC ZONE SPLITTER 8,ZONE WAREHOUSE OFFICE B  - STORY GROUND PSZ-AC DEMAND INLET NODE,ZONE WAREHOUSE OFFICE B  - STORY GROUND PSZ-AC DIFFUSER INLET AIR NODE,ZONE WAREHOUSE OFFICE B  - STORY GROUND PSZ-AC
! <#Nodes on Supply Air Path>,<Number of Nodes>
! <Supply Air Path Node>,<Node Type>,<Node Count>,<Node Name>,<AirLoopHVAC Name>
#Nodes on Supply Air Path,2
   Supply Air Path Node,Inlet Node,1,ZONE WAREHOUSE OFFICE B  - STORY GROUND PSZ-AC DEMAND INLET NODE,ZONE WAREHOUSE OFFICE B  - STORY GROUND PSZ-AC
   Supply Air Path Node,Outlet Node,2,ZONE WAREHOUSE OFFICE B  - STORY GROUND PSZ-AC DIFFUSER INLET AIR NODE,ZONE WAREHOUSE OFFICE B  - STORY GROUND PSZ-AC
 Supply Air Path,9,ZONE WAREHOUSE OFFICE C  - STORY GROUND PSZ-AC ZONE WAREHOUSE OFFICE C  - STORY GROUND PSZ-AC DEMAND INLET NODE SUPPLY PATH,ZONE WAREHOUSE OFFICE C  - STORY GROUND PSZ-AC
   #Components on Supply Air Path,1
   Supply Air Path Component,1,AIRLOOPHVAC:ZONESPLITTER,AIR LOOP HVAC ZONE SPLITTER 9,ZONE WAREHOUSE OFFICE C  - STORY GROUND PSZ-AC
     #Outlet Nodes on Supply Air Path Component,1
     Supply Air Path Component Nodes,1,AIRLOOPHVAC:ZONESPLITTER,AIR LOOP HVAC ZONE SPLITTER 9,ZONE WAREHOUSE OFFICE C  - STORY GROUND PSZ-AC DEMAND INLET NODE,ZONE WAREHOUSE OFFICE C  - STORY GROUND PSZ-AC DIFFUSER INLET AIR NODE,ZONE WAREHOUSE OFFICE C  - STORY GROUND PSZ-AC
! <#Nodes on Supply Air Path>,<Number of Nodes>
! <Supply Air Path Node>,<Node Type>,<Node Count>,<Node Name>,<AirLoopHVAC Name>
#Nodes on Supply Air Path,2
   Supply Air Path Node,Inlet Node,1,ZONE WAREHOUSE OFFICE C  - STORY GROUND PSZ-AC DEMAND INLET NODE,ZONE WAREHOUSE OFFICE C  - STORY GROUND PSZ-AC
   Supply Air Path Node,Outlet Node,2,ZONE WAREHOUSE OFFICE C  - STORY GROUND PSZ-AC DIFFUSER INLET AIR NODE,ZONE WAREHOUSE OFFICE C  - STORY GROUND PSZ-AC
! ===============================================================
! <#Return Air Paths>,<Number of Return Air Paths>
 #Return Air Paths,9
! <Return Air Path>,<Return Air Path Count>,<Return Air Path Name>,<AirLoopHVAC Name>
! <#Components on Return Air Path>,<Number of Components>
! <Return Air Path Component>,<Component Count>,<Component Type>,<Component Name>,<AirLoopHVAC Name>
! <#Inlet Nodes on Return Air Path Component>,<Number of Nodes>
! <Return Air Path Component Nodes>,<Node Count>,<Component Type>,<Component Name>,<Inlet Node Name>,<Outlet Node Name>,<AirLoopHVAC Name>
 Return Air Path,1,ZONE WAREHOUSE FINE A  - STORY GROUND PSZ-AC RETURN PATH,ZONE WAREHOUSE FINE A  - STORY GROUND PSZ-AC
   #Components on Return Air Path,1
   Return Air Path Component,1,AIRLOOPHVAC:ZONEMIXER,AIR LOOP HVAC ZONE MIXER 1,ZONE WAREHOUSE FINE A  - STORY GROUND PSZ-AC
     #Inlet Nodes on Return Air Path Component,1
     Return Air Path Component Nodes,1,AIRLOOPHVAC:ZONEMIXER,AIR LOOP HVAC ZONE MIXER 1,ZONE WAREHOUSE FINE A  - STORY GROUND RETURN AIR NODE,ZONE WAREHOUSE FINE A  - STORY GROUND PSZ-AC DEMAND OUTLET NODE,ZONE WAREHOUSE FINE A  - STORY GROUND PSZ-AC
! <#Nodes on Return Air Path>,<Number of Nodes>
! <Return Air Path Node>,<Node Type>,<Node Count>,<Node Name>,<AirLoopHVAC Name>
   #Nodes on Return Air Path,2
   Return Air Path Node,Outlet Node,1,ZONE WAREHOUSE FINE A  - STORY GROUND PSZ-AC DEMAND OUTLET NODE,ZONE WAREHOUSE FINE A  - STORY GROUND PSZ-AC
   Return Air Path Node,Inlet Node,2,ZONE WAREHOUSE FINE A  - STORY GROUND RETURN AIR NODE,ZONE WAREHOUSE FINE A  - STORY GROUND PSZ-AC
 Return Air Path,2,ZONE WAREHOUSE FINE A END_B - STORY GROUND PSZ-AC RETURN PATH,ZONE WAREHOUSE FINE A END_B - STORY GROUND PSZ-AC
   #Components on Return Air Path,1
   Return Air Path Component,1,AIRLOOPHVAC:ZONEMIXER,AIR LOOP HVAC ZONE MIXER 2,ZONE WAREHOUSE FINE A END_B - STORY GROUND PSZ-AC
     #Inlet Nodes on Return Air Path Component,1
     Return Air Path Component Nodes,1,AIRLOOPHVAC:ZONEMIXER,AIR LOOP HVAC ZONE MIXER 2,ZONE WAREHOUSE FINE A END_B - STORY GROUND RETURN AIR NODE,ZONE WAREHOUSE FINE A END_B - STORY GROUND PSZ-AC DEMAND OUTLET NODE,ZONE WAREHOUSE FINE A END_B - STORY GROUND PSZ-AC
! <#Nodes on Return Air Path>,<Number of Nodes>
! <Return Air Path Node>,<Node Type>,<Node Count>,<Node Name>,<AirLoopHVAC Name>
   #Nodes on Return Air Path,2
   Return Air Path Node,Outlet Node,1,ZONE WAREHOUSE FINE A END_B - STORY GROUND PSZ-AC DEMAND OUTLET NODE,ZONE WAREHOUSE FINE A END_B - STORY GROUND PSZ-AC
   Return Air Path Node,Inlet Node,2,ZONE WAREHOUSE FINE A END_B - STORY GROUND RETURN AIR NODE,ZONE WAREHOUSE FINE A END_B - STORY GROUND PSZ-AC
 Return Air Path,3,ZONE WAREHOUSE FINE B  - STORY GROUND PSZ-AC RETURN PATH,ZONE WAREHOUSE FINE B  - STORY GROUND PSZ-AC
   #Components on Return Air Path,1
   Return Air Path Component,1,AIRLOOPHVAC:ZONEMIXER,AIR LOOP HVAC ZONE MIXER 3,ZONE WAREHOUSE FINE B  - STORY GROUND PSZ-AC
     #Inlet Nodes on Return Air Path Component,1
     Return Air Path Component Nodes,1,AIRLOOPHVAC:ZONEMIXER,AIR LOOP HVAC ZONE MIXER 3,ZONE WAREHOUSE FINE B  - STORY GROUND RETURN AIR NODE,ZONE WAREHOUSE FINE B  - STORY GROUND PSZ-AC DEMAND OUTLET NODE,ZONE WAREHOUSE FINE B  - STORY GROUND PSZ-AC
! <#Nodes on Return Air Path>,<Number of Nodes>
! <Return Air Path Node>,<Node Type>,<Node Count>,<Node Name>,<AirLoopHVAC Name>
   #Nodes on Return Air Path,2
   Return Air Path Node,Outlet Node,1,ZONE WAREHOUSE FINE B  - STORY GROUND PSZ-AC DEMAND OUTLET NODE,ZONE WAREHOUSE FINE B  - STORY GROUND PSZ-AC
   Return Air Path Node,Inlet Node,2,ZONE WAREHOUSE FINE B  - STORY GROUND RETURN AIR NODE,ZONE WAREHOUSE FINE B  - STORY GROUND PSZ-AC
 Return Air Path,4,ZONE WAREHOUSE FINE B END_B - STORY GROUND PSZ-AC RETURN PATH,ZONE WAREHOUSE FINE B END_B - STORY GROUND PSZ-AC
   #Components on Return Air Path,1
   Return Air Path Component,1,AIRLOOPHVAC:ZONEMIXER,AIR LOOP HVAC ZONE MIXER 4,ZONE WAREHOUSE FINE B END_B - STORY GROUND PSZ-AC
     #Inlet Nodes on Return Air Path Component,1
     Return Air Path Component Nodes,1,AIRLOOPHVAC:ZONEMIXER,AIR LOOP HVAC ZONE MIXER 4,ZONE WAREHOUSE FINE B END_B - STORY GROUND RETURN AIR NODE,ZONE WAREHOUSE FINE B END_B - STORY GROUND PSZ-AC DEMAND OUTLET NODE,ZONE WAREHOUSE FINE B END_B - STORY GROUND PSZ-AC
! <#Nodes on Return Air Path>,<Number of Nodes>
! <Return Air Path Node>,<Node Type>,<Node Count>,<Node Name>,<AirLoopHVAC Name>
   #Nodes on Return Air Path,2
   Return Air Path Node,Outlet Node,1,ZONE WAREHOUSE FINE B END_B - STORY GROUND PSZ-AC DEMAND OUTLET NODE,ZONE WAREHOUSE FINE B END_B - STORY GROUND PSZ-AC
   Return Air Path Node,Inlet Node,2,ZONE WAREHOUSE FINE B END_B - STORY GROUND RETURN AIR NODE,ZONE WAREHOUSE FINE B END_B - STORY GROUND PSZ-AC
 Return Air Path,5,ZONE WAREHOUSE FINE C  - STORY GROUND PSZ-AC RETURN PATH,ZONE WAREHOUSE FINE C  - STORY GROUND PSZ-AC
   #Components on Return Air Path,1
   Return Air Path Component,1,AIRLOOPHVAC:ZONEMIXER,AIR LOOP HVAC ZONE MIXER 5,ZONE WAREHOUSE FINE C  - STORY GROUND PSZ-AC
     #Inlet Nodes on Return Air Path Component,1
     Return Air Path Component Nodes,1,AIRLOOPHVAC:ZONEMIXER,AIR LOOP HVAC ZONE MIXER 5,ZONE WAREHOUSE FINE C  - STORY GROUND RETURN AIR NODE,ZONE WAREHOUSE FINE C  - STORY GROUND PSZ-AC DEMAND OUTLET NODE,ZONE WAREHOUSE FINE C  - STORY GROUND PSZ-AC
! <#Nodes on Return Air Path>,<Number of Nodes>
! <Return Air Path Node>,<Node Type>,<Node Count>,<Node Name>,<AirLoopHVAC Name>
   #Nodes on Return Air Path,2
   Return Air Path Node,Outlet Node,1,ZONE WAREHOUSE FINE C  - STORY GROUND PSZ-AC DEMAND OUTLET NODE,ZONE WAREHOUSE FINE C  - STORY GROUND PSZ-AC
   Return Air Path Node,Inlet Node,2,ZONE WAREHOUSE FINE C  - STORY GROUND RETURN AIR NODE,ZONE WAREHOUSE FINE C  - STORY GROUND PSZ-AC
 Return Air Path,6,ZONE WAREHOUSE FINE C END_B - STORY GROUND PSZ-AC RETURN PATH,ZONE WAREHOUSE FINE C END_B - STORY GROUND PSZ-AC
   #Components on Return Air Path,1
   Return Air Path Component,1,AIRLOOPHVAC:ZONEMIXER,AIR LOOP HVAC ZONE MIXER 6,ZONE WAREHOUSE FINE C END_B - STORY GROUND PSZ-AC
     #Inlet Nodes on Return Air Path Component,1
     Return Air Path Component Nodes,1,AIRLOOPHVAC:ZONEMIXER,AIR LOOP HVAC ZONE MIXER 6,ZONE WAREHOUSE FINE C END_B - STORY GROUND RETURN AIR NODE,ZONE WAREHOUSE FINE C END_B - STORY GROUND PSZ-AC DEMAND OUTLET NODE,ZONE WAREHOUSE FINE C END_B - STORY GROUND PSZ-AC
! <#Nodes on Return Air Path>,<Number of Nodes>
! <Return Air Path Node>,<Node Type>,<Node Count>,<Node Name>,<AirLoopHVAC Name>
   #Nodes on Return Air Path,2
   Return Air Path Node,Outlet Node,1,ZONE WAREHOUSE FINE C END_B - STORY GROUND PSZ-AC DEMAND OUTLET NODE,ZONE WAREHOUSE FINE C END_B - STORY GROUND PSZ-AC
   Return Air Path Node,Inlet Node,2,ZONE WAREHOUSE FINE C END_B - STORY GROUND RETURN AIR NODE,ZONE WAREHOUSE FINE C END_B - STORY GROUND PSZ-AC
 Return Air Path,7,ZONE WAREHOUSE OFFICE A  - STORY GROUND PSZ-AC RETURN PATH,ZONE WAREHOUSE OFFICE A  - STORY GROUND PSZ-AC
   #Components on Return Air Path,1
   Return Air Path Component,1,AIRLOOPHVAC:ZONEMIXER,AIR LOOP HVAC ZONE MIXER 7,ZONE WAREHOUSE OFFICE A  - STORY GROUND PSZ-AC
     #Inlet Nodes on Return Air Path Component,1
     Return Air Path Component Nodes,1,AIRLOOPHVAC:ZONEMIXER,AIR LOOP HVAC ZONE MIXER 7,ZONE WAREHOUSE OFFICE A  - STORY GROUND RETURN AIR NODE,ZONE WAREHOUSE OFFICE A  - STORY GROUND PSZ-AC DEMAND OUTLET NODE,ZONE WAREHOUSE OFFICE A  - STORY GROUND PSZ-AC
! <#Nodes on Return Air Path>,<Number of Nodes>
! <Return Air Path Node>,<Node Type>,<Node Count>,<Node Name>,<AirLoopHVAC Name>
   #Nodes on Return Air Path,2
   Return Air Path Node,Outlet Node,1,ZONE WAREHOUSE OFFICE A  - STORY GROUND PSZ-AC DEMAND OUTLET NODE,ZONE WAREHOUSE OFFICE A  - STORY GROUND PSZ-AC
   Return Air Path Node,Inlet Node,2,ZONE WAREHOUSE OFFICE A  - STORY GROUND RETURN AIR NODE,ZONE WAREHOUSE OFFICE A  - STORY GROUND PSZ-AC
 Return Air Path,8,ZONE WAREHOUSE OFFICE B  - STORY GROUND PSZ-AC RETURN PATH,ZONE WAREHOUSE OFFICE B  - STORY GROUND PSZ-AC
   #Components on Return Air Path,1
   Return Air Path Component,1,AIRLOOPHVAC:ZONEMIXER,AIR LOOP HVAC ZONE MIXER 8,ZONE WAREHOUSE OFFICE B  - STORY GROUND PSZ-AC
     #Inlet Nodes on Return Air Path Component,1
     Return Air Path Component Nodes,1,AIRLOOPHVAC:ZONEMIXER,AIR LOOP HVAC ZONE MIXER 8,ZONE WAREHOUSE OFFICE B  - STORY GROUND RETURN AIR NODE,ZONE WAREHOUSE OFFICE B  - STORY GROUND PSZ-AC DEMAND OUTLET NODE,ZONE WAREHOUSE OFFICE B  - STORY GROUND PSZ-AC
! <#Nodes on Return Air Path>,<Number of Nodes>
! <Return Air Path Node>,<Node Type>,<Node Count>,<Node Name>,<AirLoopHVAC Name>
   #Nodes on Return Air Path,2
   Return Air Path Node,Outlet Node,1,ZONE WAREHOUSE OFFICE B  - STORY GROUND PSZ-AC DEMAND OUTLET NODE,ZONE WAREHOUSE OFFICE B  - STORY GROUND PSZ-AC
   Return Air Path Node,Inlet Node,2,ZONE WAREHOUSE OFFICE B  - STORY GROUND RETURN AIR NODE,ZONE WAREHOUSE OFFICE B  - STORY GROUND PSZ-AC
 Return Air Path,9,ZONE WAREHOUSE OFFICE C  - STORY GROUND PSZ-AC RETURN PATH,ZONE WAREHOUSE OFFICE C  - STORY GROUND PSZ-AC
   #Components on Return Air Path,1
   Return Air Path Component,1,AIRLOOPHVAC:ZONEMIXER,AIR LOOP HVAC ZONE MIXER 9,ZONE WAREHOUSE OFFICE C  - STORY GROUND PSZ-AC
     #Inlet Nodes on Return Air Path Component,1
     Return Air Path Component Nodes,1,AIRLOOPHVAC:ZONEMIXER,AIR LOOP HVAC ZONE MIXER 9,ZONE WAREHOUSE OFFICE C  - STORY GROUND RETURN AIR NODE,ZONE WAREHOUSE OFFICE C  - STORY GROUND PSZ-AC DEMAND OUTLET NODE,ZONE WAREHOUSE OFFICE C  - STORY GROUND PSZ-AC
! <#Nodes on Return Air Path>,<Number of Nodes>
! <Return Air Path Node>,<Node Type>,<Node Count>,<Node Name>,<AirLoopHVAC Name>
   #Nodes on Return Air Path,2
   Return Air Path Node,Outlet Node,1,ZONE WAREHOUSE OFFICE C  - STORY GROUND PSZ-AC DEMAND OUTLET NODE,ZONE WAREHOUSE OFFICE C  - STORY GROUND PSZ-AC
   Return Air Path Node,Inlet Node,2,ZONE WAREHOUSE OFFICE C  - STORY GROUND RETURN AIR NODE,ZONE WAREHOUSE OFFICE C  - STORY GROUND PSZ-AC
! ===============================================================
! #Outdoor Air Nodes,<Number of Outdoor Air Nodes>
 #Outdoor Air Nodes,10
! <Outdoor Air Node>,<NodeNumber>,<Node Name>
 Outdoor Air Node,95,ZONE WAREHOUSE FINE A  - STORY GROUND PSZ-AC OUTDOOR AIR NODE
 Outdoor Air Node,96,ZONE WAREHOUSE FINE A END_B - STORY GROUND PSZ-AC OUTDOOR AIR NODE
 Outdoor Air Node,97,ZONE WAREHOUSE FINE B  - STORY GROUND PSZ-AC OUTDOOR AIR NODE
 Outdoor Air Node,98,ZONE WAREHOUSE FINE B END_B - STORY GROUND PSZ-AC OUTDOOR AIR NODE
 Outdoor Air Node,99,ZONE WAREHOUSE FINE C  - STORY GROUND PSZ-AC OUTDOOR AIR NODE
 Outdoor Air Node,100,ZONE WAREHOUSE FINE C END_B - STORY GROUND PSZ-AC OUTDOOR AIR NODE
 Outdoor Air Node,101,ZONE WAREHOUSE OFFICE A  - STORY GROUND PSZ-AC OUTDOOR AIR NODE
 Outdoor Air Node,102,ZONE WAREHOUSE OFFICE B  - STORY GROUND PSZ-AC OUTDOOR AIR NODE
 Outdoor Air Node,103,ZONE WAREHOUSE OFFICE C  - STORY GROUND PSZ-AC OUTDOOR AIR NODE
 Outdoor Air Node,104,MODEL OUTDOOR AIR NODE
! ===============================================================
! <#Component Sets>,<Number of Component Sets>
 #Component Sets,80
! <Component Set>,<Component Set Count>,<Parent Object Type>,<Parent Object Name>,<Component Type>,<Component Name>,<Inlet Node ID>,<Outlet Node ID>,<Description>
 Component Set,1,BRANCH,ZONE WAREHOUSE FINE A  - STORY GROUND PSZ-AC MAIN BRANCH,AIRLOOPHVAC:OUTDOORAIRSYSTEM,ZONE WAREHOUSE FINE A  - STORY GROUND PSZ-AC OA SYSTEM,ZONE WAREHOUSE FINE A  - STORY GROUND PSZ-AC SUPPLY INLET NODE,ZONE WAREHOUSE FINE A  - STORY GROUND PSZ-AC MIXED AIR NODE,Air Nodes
 Component Set,2,BRANCH,ZONE WAREHOUSE FINE A  - STORY GROUND PSZ-AC MAIN BRANCH,AIRLOOPHVAC:UNITARYSYSTEM,ZONE WAREHOUSE FINE A  - STORY GROUND PSZ-AC UNITARY AC,ZONE WAREHOUSE FINE A  - STORY GROUND PSZ-AC MIXED AIR NODE,ZONE WAREHOUSE FINE A  - STORY GROUND PSZ-AC SUPPLY OUTLET NODE,Air Nodes
 Component Set,3,BRANCH,ZONE WAREHOUSE FINE A END_B - STORY GROUND PSZ-AC MAIN BRANCH,AIRLOOPHVAC:OUTDOORAIRSYSTEM,ZONE WAREHOUSE FINE A END_B - STORY GROUND PSZ-AC OA SYSTEM,ZONE WAREHOUSE FINE A END_B - STORY GROUND PSZ-AC SUPPLY INLET NODE,ZONE WAREHOUSE FINE A END_B - STORY GROUND PSZ-AC MIXED AIR NODE,Air Nodes
 Component Set,4,BRANCH,ZONE WAREHOUSE FINE A END_B - STORY GROUND PSZ-AC MAIN BRANCH,AIRLOOPHVAC:UNITARYSYSTEM,ZONE WAREHOUSE FINE A END_B - STORY GROUND PSZ-AC UNITARY AC,ZONE WAREHOUSE FINE A END_B - STORY GROUND PSZ-AC MIXED AIR NODE,ZONE WAREHOUSE FINE A END_B - STORY GROUND PSZ-AC SUPPLY OUTLET NODE,Air Nodes
 Component Set,5,BRANCH,ZONE WAREHOUSE FINE B  - STORY GROUND PSZ-AC MAIN BRANCH,AIRLOOPHVAC:OUTDOORAIRSYSTEM,ZONE WAREHOUSE FINE B  - STORY GROUND PSZ-AC OA SYSTEM,ZONE WAREHOUSE FINE B  - STORY GROUND PSZ-AC SUPPLY INLET NODE,ZONE WAREHOUSE FINE B  - STORY GROUND PSZ-AC MIXED AIR NODE,Air Nodes
 Component Set,6,BRANCH,ZONE WAREHOUSE FINE B  - STORY GROUND PSZ-AC MAIN BRANCH,AIRLOOPHVAC:UNITARYSYSTEM,ZONE WAREHOUSE FINE B  - STORY GROUND PSZ-AC UNITARY AC,ZONE WAREHOUSE FINE B  - STORY GROUND PSZ-AC MIXED AIR NODE,ZONE WAREHOUSE FINE B  - STORY GROUND PSZ-AC SUPPLY OUTLET NODE,Air Nodes
 Component Set,7,BRANCH,ZONE WAREHOUSE FINE B END_B - STORY GROUND PSZ-AC MAIN BRANCH,AIRLOOPHVAC:OUTDOORAIRSYSTEM,ZONE WAREHOUSE FINE B END_B - STORY GROUND PSZ-AC OA SYSTEM,ZONE WAREHOUSE FINE B END_B - STORY GROUND PSZ-AC SUPPLY INLET NODE,ZONE WAREHOUSE FINE B END_B - STORY GROUND PSZ-AC MIXED AIR NODE,Air Nodes
 Component Set,8,BRANCH,ZONE WAREHOUSE FINE B END_B - STORY GROUND PSZ-AC MAIN BRANCH,AIRLOOPHVAC:UNITARYSYSTEM,ZONE WAREHOUSE FINE B END_B - STORY GROUND PSZ-AC UNITARY AC,ZONE WAREHOUSE FINE B END_B - STORY GROUND PSZ-AC MIXED AIR NODE,ZONE WAREHOUSE FINE B END_B - STORY GROUND PSZ-AC SUPPLY OUTLET NODE,Air Nodes
 Component Set,9,BRANCH,ZONE WAREHOUSE FINE C  - STORY GROUND PSZ-AC MAIN BRANCH,AIRLOOPHVAC:OUTDOORAIRSYSTEM,ZONE WAREHOUSE FINE C  - STORY GROUND PSZ-AC OA SYSTEM,ZONE WAREHOUSE FINE C  - STORY GROUND PSZ-AC SUPPLY INLET NODE,ZONE WAREHOUSE FINE C  - STORY GROUND PSZ-AC MIXED AIR NODE,Air Nodes
 Component Set,10,BRANCH,ZONE WAREHOUSE FINE C  - STORY GROUND PSZ-AC MAIN BRANCH,AIRLOOPHVAC:UNITARYSYSTEM,ZONE WAREHOUSE FINE C  - STORY GROUND PSZ-AC UNITARY AC,ZONE WAREHOUSE FINE C  - STORY GROUND PSZ-AC MIXED AIR NODE,ZONE WAREHOUSE FINE C  - STORY GROUND PSZ-AC SUPPLY OUTLET NODE,Air Nodes
 Component Set,11,BRANCH,ZONE WAREHOUSE FINE C END_B - STORY GROUND PSZ-AC MAIN BRANCH,AIRLOOPHVAC:OUTDOORAIRSYSTEM,ZONE WAREHOUSE FINE C END_B - STORY GROUND PSZ-AC OA SYSTEM,ZONE WAREHOUSE FINE C END_B - STORY GROUND PSZ-AC SUPPLY INLET NODE,ZONE WAREHOUSE FINE C END_B - STORY GROUND PSZ-AC MIXED AIR NODE,Air Nodes
 Component Set,12,BRANCH,ZONE WAREHOUSE FINE C END_B - STORY GROUND PSZ-AC MAIN BRANCH,AIRLOOPHVAC:UNITARYSYSTEM,ZONE WAREHOUSE FINE C END_B - STORY GROUND PSZ-AC UNITARY AC,ZONE WAREHOUSE FINE C END_B - STORY GROUND PSZ-AC MIXED AIR NODE,ZONE WAREHOUSE FINE C END_B - STORY GROUND PSZ-AC SUPPLY OUTLET NODE,Air Nodes
 Component Set,13,BRANCH,ZONE WAREHOUSE OFFICE A  - STORY GROUND PSZ-AC MAIN BRANCH,AIRLOOPHVAC:OUTDOORAIRSYSTEM,ZONE WAREHOUSE OFFICE A  - STORY GROUND PSZ-AC OA SYSTEM,ZONE WAREHOUSE OFFICE A  - STORY GROUND PSZ-AC SUPPLY INLET NODE,ZONE WAREHOUSE OFFICE A  - STORY GROUND PSZ-AC MIXED AIR NODE,Air Nodes
 Component Set,14,BRANCH,ZONE WAREHOUSE OFFICE A  - STORY GROUND PSZ-AC MAIN BRANCH,AIRLOOPHVAC:UNITARYSYSTEM,ZONE WAREHOUSE OFFICE A  - STORY GROUND PSZ-AC UNITARY AC,ZONE WAREHOUSE OFFICE A  - STORY GROUND PSZ-AC MIXED AIR NODE,ZONE WAREHOUSE OFFICE A  - STORY GROUND PSZ-AC SUPPLY OUTLET NODE,Air Nodes
 Component Set,15,BRANCH,ZONE WAREHOUSE OFFICE B  - STORY GROUND PSZ-AC MAIN BRANCH,AIRLOOPHVAC:OUTDOORAIRSYSTEM,ZONE WAREHOUSE OFFICE B  - STORY GROUND PSZ-AC OA SYSTEM,ZONE WAREHOUSE OFFICE B  - STORY GROUND PSZ-AC SUPPLY INLET NODE,ZONE WAREHOUSE OFFICE B  - STORY GROUND PSZ-AC MIXED AIR NODE,Air Nodes
 Component Set,16,BRANCH,ZONE WAREHOUSE OFFICE B  - STORY GROUND PSZ-AC MAIN BRANCH,AIRLOOPHVAC:UNITARYSYSTEM,ZONE WAREHOUSE OFFICE B  - STORY GROUND PSZ-AC UNITARY AC,ZONE WAREHOUSE OFFICE B  - STORY GROUND PSZ-AC MIXED AIR NODE,ZONE WAREHOUSE OFFICE B  - STORY GROUND PSZ-AC SUPPLY OUTLET NODE,Air Nodes
 Component Set,17,BRANCH,ZONE WAREHOUSE OFFICE C  - STORY GROUND PSZ-AC MAIN BRANCH,AIRLOOPHVAC:OUTDOORAIRSYSTEM,ZONE WAREHOUSE OFFICE C  - STORY GROUND PSZ-AC OA SYSTEM,ZONE WAREHOUSE OFFICE C  - STORY GROUND PSZ-AC SUPPLY INLET NODE,ZONE WAREHOUSE OFFICE C  - STORY GROUND PSZ-AC MIXED AIR NODE,Air Nodes
 Component Set,18,BRANCH,ZONE WAREHOUSE OFFICE C  - STORY GROUND PSZ-AC MAIN BRANCH,AIRLOOPHVAC:UNITARYSYSTEM,ZONE WAREHOUSE OFFICE C  - STORY GROUND PSZ-AC UNITARY AC,ZONE WAREHOUSE OFFICE C  - STORY GROUND PSZ-AC MIXED AIR NODE,ZONE WAREHOUSE OFFICE C  - STORY GROUND PSZ-AC SUPPLY OUTLET NODE,Air Nodes
 Component Set,19,BRANCH,MAIN SERVICE WATER LOOP SUPPLY INLET BRANCH,PUMP:VARIABLESPEED,MAIN SERVICE WATER LOOP WATER MAINS PRESSURE DRIVEN,MAIN SERVICE WATER LOOP SUPPLY INLET NODE,MAIN SERVICE WATER LOOP WATER MAINS PRESSURE DRIVEN OUTLET WATER NODE,Water Nodes
 Component Set,20,BRANCH,MAIN SERVICE WATER LOOP SUPPLY BRANCH 1,WATERHEATER:MIXED,40GAL ELECTRICITY WATER HEATER - 40KBTU/HR 1.0 THERM EFF 1.0 THERM EFF,40GAL ELECTRICITY WATER HEATER - 40KBTU/HR 1.0 THERM EFF SUPPLY INLET WATER NODE,40GAL ELECTRICITY WATER HEATER - 40KBTU/HR 1.0 THERM EFF SUPPLY OUTLET WATER NODE,Use Side Water Nodes
 Component Set,21,BRANCH,MAIN SERVICE WATER LOOP SUPPLY BRANCH 2,PIPE:ADIABATIC,PIPE ADIABATIC 1,PIPE ADIABATIC 1 INLET WATER NODE,PIPE ADIABATIC 1 OUTLET WATER NODE,Pipe Nodes
 Component Set,22,BRANCH,MAIN SERVICE WATER LOOP SUPPLY OUTLET BRANCH,PIPE:ADIABATIC,PIPE ADIABATIC 3,PIPE ADIABATIC 3 INLET WATER NODE,MAIN SERVICE WATER LOOP SUPPLY OUTLET NODE,Pipe Nodes
 Component Set,23,BRANCH,MAIN SERVICE WATER LOOP DEMAND INLET BRANCH,PIPE:ADIABATIC,MAIN SERVICE WATER LOOP DEMAND INLET PIPE,MAIN SERVICE WATER LOOP DEMAND INLET NODE,MAIN SERVICE WATER LOOP DEMAND INLET PIPE NODE,Pipe Nodes
 Component Set,24,BRANCH,MAIN SERVICE WATER LOOP DEMAND BRANCH 1,PIPE:ADIABATIC,PIPE ADIABATIC 2,PIPE ADIABATIC 2 INLET WATER NODE,PIPE ADIABATIC 2 OUTLET WATER NODE,Pipe Nodes
 Component Set,25,BRANCH,MAIN SERVICE WATER LOOP DEMAND BYPASS BRANCH,PIPE:ADIABATIC,MAIN SERVICE WATER LOOP DEMAND BYPASS PIPE,MAIN SERVICE WATER LOOP DEMAND BYPASS PIPE INLET NODE,MAIN SERVICE WATER LOOP DEMAND BYPASS PIPE OUTLET NODE,Pipe Nodes
 Component Set,26,BRANCH,MAIN SERVICE WATER LOOP DEMAND OUTLET BRANCH,PIPE:ADIABATIC,PIPE ADIABATIC 4,PIPE ADIABATIC 4 INLET WATER NODE,MAIN SERVICE WATER LOOP DEMAND OUTLET NODE,Pipe Nodes
 Component Set,27,ZONEHVAC:AIRDISTRIBUTIONUNIT,ADU ZONE WAREHOUSE FINE A  - STORY GROUND PSZ-AC DIFFUSER,AIRTERMINAL:SINGLEDUCT:CONSTANTVOLUME:NOREHEAT,ZONE WAREHOUSE FINE A  - STORY GROUND PSZ-AC DIFFUSER,ZONE WAREHOUSE FINE A  - STORY GROUND PSZ-AC DIFFUSER INLET AIR NODE,ZONE WAREHOUSE FINE A  - STORY GROUND PSZ-AC DIFFUSER OUTLET AIR NODE,Air Nodes
 Component Set,28,ZONEHVAC:AIRDISTRIBUTIONUNIT,ADU ZONE WAREHOUSE FINE A END_B - STORY GROUND PSZ-AC DIFFUSER,AIRTERMINAL:SINGLEDUCT:CONSTANTVOLUME:NOREHEAT,ZONE WAREHOUSE FINE A END_B - STORY GROUND PSZ-AC DIFFUSER,ZONE WAREHOUSE FINE A END_B - STORY GROUND PSZ-AC DIFFUSER INLET AIR NODE,ZONE WAREHOUSE FINE A END_B - STORY GROUND PSZ-AC DIFFUSER OUTLET AIR NODE,Air Nodes
 Component Set,29,ZONEHVAC:AIRDISTRIBUTIONUNIT,ADU ZONE WAREHOUSE FINE B  - STORY GROUND PSZ-AC DIFFUSER,AIRTERMINAL:SINGLEDUCT:CONSTANTVOLUME:NOREHEAT,ZONE WAREHOUSE FINE B  - STORY GROUND PSZ-AC DIFFUSER,ZONE WAREHOUSE FINE B  - STORY GROUND PSZ-AC DIFFUSER INLET AIR NODE,ZONE WAREHOUSE FINE B  - STORY GROUND PSZ-AC DIFFUSER OUTLET AIR NODE,Air Nodes
 Component Set,30,ZONEHVAC:AIRDISTRIBUTIONUNIT,ADU ZONE WAREHOUSE FINE B END_B - STORY GROUND PSZ-AC DIFFUSER,AIRTERMINAL:SINGLEDUCT:CONSTANTVOLUME:NOREHEAT,ZONE WAREHOUSE FINE B END_B - STORY GROUND PSZ-AC DIFFUSER,ZONE WAREHOUSE FINE B END_B - STORY GROUND PSZ-AC DIFFUSER INLET AIR NODE,ZONE WAREHOUSE FINE B END_B - STORY GROUND PSZ-AC DIFFUSER OUTLET AIR NODE,Air Nodes
 Component Set,31,ZONEHVAC:AIRDISTRIBUTIONUNIT,ADU ZONE WAREHOUSE FINE C  - STORY GROUND PSZ-AC DIFFUSER,AIRTERMINAL:SINGLEDUCT:CONSTANTVOLUME:NOREHEAT,ZONE WAREHOUSE FINE C  - STORY GROUND PSZ-AC DIFFUSER,ZONE WAREHOUSE FINE C  - STORY GROUND PSZ-AC DIFFUSER INLET AIR NODE,ZONE WAREHOUSE FINE C  - STORY GROUND PSZ-AC DIFFUSER OUTLET AIR NODE,Air Nodes
 Component Set,32,ZONEHVAC:AIRDISTRIBUTIONUNIT,ADU ZONE WAREHOUSE FINE C END_B - STORY GROUND PSZ-AC DIFFUSER,AIRTERMINAL:SINGLEDUCT:CONSTANTVOLUME:NOREHEAT,ZONE WAREHOUSE FINE C END_B - STORY GROUND PSZ-AC DIFFUSER,ZONE WAREHOUSE FINE C END_B - STORY GROUND PSZ-AC DIFFUSER INLET AIR NODE,ZONE WAREHOUSE FINE C END_B - STORY GROUND PSZ-AC DIFFUSER OUTLET AIR NODE,Air Nodes
 Component Set,33,ZONEHVAC:AIRDISTRIBUTIONUNIT,ADU ZONE WAREHOUSE OFFICE A  - STORY GROUND PSZ-AC DIFFUSER,AIRTERMINAL:SINGLEDUCT:CONSTANTVOLUME:NOREHEAT,ZONE WAREHOUSE OFFICE A  - STORY GROUND PSZ-AC DIFFUSER,ZONE WAREHOUSE OFFICE A  - STORY GROUND PSZ-AC DIFFUSER INLET AIR NODE,ZONE WAREHOUSE OFFICE A  - STORY GROUND PSZ-AC DIFFUSER OUTLET AIR NODE,Air Nodes
 Component Set,34,ZONEHVAC:AIRDISTRIBUTIONUNIT,ADU ZONE WAREHOUSE OFFICE B  - STORY GROUND PSZ-AC DIFFUSER,AIRTERMINAL:SINGLEDUCT:CONSTANTVOLUME:NOREHEAT,ZONE WAREHOUSE OFFICE B  - STORY GROUND PSZ-AC DIFFUSER,ZONE WAREHOUSE OFFICE B  - STORY GROUND PSZ-AC DIFFUSER INLET AIR NODE,ZONE WAREHOUSE OFFICE B  - STORY GROUND PSZ-AC DIFFUSER OUTLET AIR NODE,Air Nodes
 Component Set,35,ZONEHVAC:AIRDISTRIBUTIONUNIT,ADU ZONE WAREHOUSE OFFICE C  - STORY GROUND PSZ-AC DIFFUSER,AIRTERMINAL:SINGLEDUCT:CONSTANTVOLUME:NOREHEAT,ZONE WAREHOUSE OFFICE C  - STORY GROUND PSZ-AC DIFFUSER,ZONE WAREHOUSE OFFICE C  - STORY GROUND PSZ-AC DIFFUSER INLET AIR NODE,ZONE WAREHOUSE OFFICE C  - STORY GROUND PSZ-AC DIFFUSER OUTLET AIR NODE,Air Nodes
 Component Set,36,AIRLOOPHVAC:OUTDOORAIRSYSTEM,ZONE WAREHOUSE FINE A  - STORY GROUND PSZ-AC OA SYSTEM,OUTDOORAIR:MIXER,ZONE WAREHOUSE FINE A  - STORY GROUND PSZ-AC OA SYSTEM OUTDOOR AIR MIXER,ZONE WAREHOUSE FINE A  - STORY GROUND PSZ-AC OUTDOOR AIR NODE,ZONE WAREHOUSE FINE A  - STORY GROUND PSZ-AC MIXED AIR NODE,Air Nodes
 Component Set,37,AIRLOOPHVAC:OUTDOORAIRSYSTEM,ZONE WAREHOUSE FINE A END_B - STORY GROUND PSZ-AC OA SYSTEM,OUTDOORAIR:MIXER,ZONE WAREHOUSE FINE A END_B - STORY GROUND PSZ-AC OA SYSTEM OUTDOOR AIR MIXER,ZONE WAREHOUSE FINE A END_B - STORY GROUND PSZ-AC OUTDOOR AIR NODE,ZONE WAREHOUSE FINE A END_B - STORY GROUND PSZ-AC MIXED AIR NODE,Air Nodes
 Component Set,38,AIRLOOPHVAC:OUTDOORAIRSYSTEM,ZONE WAREHOUSE FINE B  - STORY GROUND PSZ-AC OA SYSTEM,OUTDOORAIR:MIXER,ZONE WAREHOUSE FINE B  - STORY GROUND PSZ-AC OA SYSTEM OUTDOOR AIR MIXER,ZONE WAREHOUSE FINE B  - STORY GROUND PSZ-AC OUTDOOR AIR NODE,ZONE WAREHOUSE FINE B  - STORY GROUND PSZ-AC MIXED AIR NODE,Air Nodes
 Component Set,39,AIRLOOPHVAC:OUTDOORAIRSYSTEM,ZONE WAREHOUSE FINE B END_B - STORY GROUND PSZ-AC OA SYSTEM,OUTDOORAIR:MIXER,ZONE WAREHOUSE FINE B END_B - STORY GROUND PSZ-AC OA SYSTEM OUTDOOR AIR MIXER,ZONE WAREHOUSE FINE B END_B - STORY GROUND PSZ-AC OUTDOOR AIR NODE,ZONE WAREHOUSE FINE B END_B - STORY GROUND PSZ-AC MIXED AIR NODE,Air Nodes
 Component Set,40,AIRLOOPHVAC:OUTDOORAIRSYSTEM,ZONE WAREHOUSE FINE C  - STORY GROUND PSZ-AC OA SYSTEM,OUTDOORAIR:MIXER,ZONE WAREHOUSE FINE C  - STORY GROUND PSZ-AC OA SYSTEM OUTDOOR AIR MIXER,ZONE WAREHOUSE FINE C  - STORY GROUND PSZ-AC OUTDOOR AIR NODE,ZONE WAREHOUSE FINE C  - STORY GROUND PSZ-AC MIXED AIR NODE,Air Nodes
 Component Set,41,AIRLOOPHVAC:OUTDOORAIRSYSTEM,ZONE WAREHOUSE FINE C END_B - STORY GROUND PSZ-AC OA SYSTEM,OUTDOORAIR:MIXER,ZONE WAREHOUSE FINE C END_B - STORY GROUND PSZ-AC OA SYSTEM OUTDOOR AIR MIXER,ZONE WAREHOUSE FINE C END_B - STORY GROUND PSZ-AC OUTDOOR AIR NODE,ZONE WAREHOUSE FINE C END_B - STORY GROUND PSZ-AC MIXED AIR NODE,Air Nodes
 Component Set,42,AIRLOOPHVAC:OUTDOORAIRSYSTEM,ZONE WAREHOUSE OFFICE A  - STORY GROUND PSZ-AC OA SYSTEM,OUTDOORAIR:MIXER,ZONE WAREHOUSE OFFICE A  - STORY GROUND PSZ-AC OA SYSTEM OUTDOOR AIR MIXER,ZONE WAREHOUSE OFFICE A  - STORY GROUND PSZ-AC OUTDOOR AIR NODE,ZONE WAREHOUSE OFFICE A  - STORY GROUND PSZ-AC MIXED AIR NODE,Air Nodes
 Component Set,43,AIRLOOPHVAC:OUTDOORAIRSYSTEM,ZONE WAREHOUSE OFFICE B  - STORY GROUND PSZ-AC OA SYSTEM,OUTDOORAIR:MIXER,ZONE WAREHOUSE OFFICE B  - STORY GROUND PSZ-AC OA SYSTEM OUTDOOR AIR MIXER,ZONE WAREHOUSE OFFICE B  - STORY GROUND PSZ-AC OUTDOOR AIR NODE,ZONE WAREHOUSE OFFICE B  - STORY GROUND PSZ-AC MIXED AIR NODE,Air Nodes
 Component Set,44,AIRLOOPHVAC:OUTDOORAIRSYSTEM,ZONE WAREHOUSE OFFICE C  - STORY GROUND PSZ-AC OA SYSTEM,OUTDOORAIR:MIXER,ZONE WAREHOUSE OFFICE C  - STORY GROUND PSZ-AC OA SYSTEM OUTDOOR AIR MIXER,ZONE WAREHOUSE OFFICE C  - STORY GROUND PSZ-AC OUTDOOR AIR NODE,ZONE WAREHOUSE OFFICE C  - STORY GROUND PSZ-AC MIXED AIR NODE,Air Nodes
 Component Set,45,AIRLOOPHVAC:UNITARYSYSTEM,ZONE WAREHOUSE FINE A  - STORY GROUND PSZ-AC UNITARY AC,COIL:HEATING:ELECTRIC,ZONE WAREHOUSE FINE A  - STORY GROUND PSZ-AC NO HEAT,ZONE WAREHOUSE FINE A  - STORY GROUND PSZ-AC UNITARY AC FAN - SUPPLEMENTAL COIL NODE,ZONE WAREHOUSE FINE A  - STORY GROUND PSZ-AC SUPPLY OUTLET NODE,Air Nodes
 Component Set,46,AIRLOOPHVAC:UNITARYSYSTEM,ZONE WAREHOUSE FINE A END_B - STORY GROUND PSZ-AC UNITARY AC,COIL:HEATING:ELECTRIC,ZONE WAREHOUSE FINE A END_B - STORY GROUND PSZ-AC NO HEAT,ZONE WAREHOUSE FINE A END_B - STORY GROUND PSZ-AC UNITARY AC FAN - SUPPLEMENTAL COIL NODE,ZONE WAREHOUSE FINE A END_B - STORY GROUND PSZ-AC SUPPLY OUTLET NODE,Air Nodes
 Component Set,47,AIRLOOPHVAC:UNITARYSYSTEM,ZONE WAREHOUSE FINE B  - STORY GROUND PSZ-AC UNITARY AC,COIL:HEATING:ELECTRIC,ZONE WAREHOUSE FINE B  - STORY GROUND PSZ-AC NO HEAT,ZONE WAREHOUSE FINE B  - STORY GROUND PSZ-AC UNITARY AC FAN - SUPPLEMENTAL COIL NODE,ZONE WAREHOUSE FINE B  - STORY GROUND PSZ-AC SUPPLY OUTLET NODE,Air Nodes
 Component Set,48,AIRLOOPHVAC:UNITARYSYSTEM,ZONE WAREHOUSE FINE B END_B - STORY GROUND PSZ-AC UNITARY AC,COIL:HEATING:ELECTRIC,ZONE WAREHOUSE FINE B END_B - STORY GROUND PSZ-AC NO HEAT,ZONE WAREHOUSE FINE B END_B - STORY GROUND PSZ-AC UNITARY AC FAN - SUPPLEMENTAL COIL NODE,ZONE WAREHOUSE FINE B END_B - STORY GROUND PSZ-AC SUPPLY OUTLET NODE,Air Nodes
 Component Set,49,AIRLOOPHVAC:UNITARYSYSTEM,ZONE WAREHOUSE FINE C  - STORY GROUND PSZ-AC UNITARY AC,COIL:HEATING:ELECTRIC,ZONE WAREHOUSE FINE C  - STORY GROUND PSZ-AC NO HEAT,ZONE WAREHOUSE FINE C  - STORY GROUND PSZ-AC UNITARY AC FAN - SUPPLEMENTAL COIL NODE,ZONE WAREHOUSE FINE C  - STORY GROUND PSZ-AC SUPPLY OUTLET NODE,Air Nodes
 Component Set,50,AIRLOOPHVAC:UNITARYSYSTEM,ZONE WAREHOUSE FINE C END_B - STORY GROUND PSZ-AC UNITARY AC,COIL:HEATING:ELECTRIC,ZONE WAREHOUSE FINE C END_B - STORY GROUND PSZ-AC NO HEAT,ZONE WAREHOUSE FINE C END_B - STORY GROUND PSZ-AC UNITARY AC FAN - SUPPLEMENTAL COIL NODE,ZONE WAREHOUSE FINE C END_B - STORY GROUND PSZ-AC SUPPLY OUTLET NODE,Air Nodes
 Component Set,51,AIRLOOPHVAC:UNITARYSYSTEM,ZONE WAREHOUSE OFFICE A  - STORY GROUND PSZ-AC UNITARY AC,COIL:HEATING:ELECTRIC,ZONE WAREHOUSE OFFICE A  - STORY GROUND PSZ-AC NO HEAT,ZONE WAREHOUSE OFFICE A  - STORY GROUND PSZ-AC UNITARY AC FAN - SUPPLEMENTAL COIL NODE,ZONE WAREHOUSE OFFICE A  - STORY GROUND PSZ-AC SUPPLY OUTLET NODE,Air Nodes
 Component Set,52,AIRLOOPHVAC:UNITARYSYSTEM,ZONE WAREHOUSE OFFICE B  - STORY GROUND PSZ-AC UNITARY AC,COIL:HEATING:ELECTRIC,ZONE WAREHOUSE OFFICE B  - STORY GROUND PSZ-AC NO HEAT,ZONE WAREHOUSE OFFICE B  - STORY GROUND PSZ-AC UNITARY AC FAN - SUPPLEMENTAL COIL NODE,ZONE WAREHOUSE OFFICE B  - STORY GROUND PSZ-AC SUPPLY OUTLET NODE,Air Nodes
 Component Set,53,AIRLOOPHVAC:UNITARYSYSTEM,ZONE WAREHOUSE OFFICE C  - STORY GROUND PSZ-AC UNITARY AC,COIL:HEATING:ELECTRIC,ZONE WAREHOUSE OFFICE C  - STORY GROUND PSZ-AC NO HEAT,ZONE WAREHOUSE OFFICE C  - STORY GROUND PSZ-AC UNITARY AC FAN - SUPPLEMENTAL COIL NODE,ZONE WAREHOUSE OFFICE C  - STORY GROUND PSZ-AC SUPPLY OUTLET NODE,Air Nodes
 Component Set,54,AIRLOOPHVAC:UNITARYSYSTEM,ZONE WAREHOUSE FINE A  - STORY GROUND PSZ-AC UNITARY AC,COIL:HEATING:FUEL,ZONE WAREHOUSE FINE A  - STORY GROUND PSZ-AC GAS HTG COIL 12KBTU/HR 0.8 THERMAL EFF,ZONE WAREHOUSE FINE A  - STORY GROUND PSZ-AC UNITARY AC COOLING COIL - HEATING COIL NODE,ZONE WAREHOUSE FINE A  - STORY GROUND PSZ-AC UNITARY AC HEATING COIL - FAN NODE,Air Nodes
 Component Set,55,AIRLOOPHVAC:UNITARYSYSTEM,ZONE WAREHOUSE FINE A END_B - STORY GROUND PSZ-AC UNITARY AC,COIL:HEATING:FUEL,ZONE WAREHOUSE FINE A END_B - STORY GROUND PSZ-AC GAS HTG COIL 19KBTU/HR 0.8 THERMAL EFF,ZONE WAREHOUSE FINE A END_B - STORY GROUND PSZ-AC UNITARY AC COOLING COIL - HEATING COIL NODE,ZONE WAREHOUSE FINE A END_B - STORY GROUND PSZ-AC UNITARY AC HEATING COIL - FAN NODE,Air Nodes
 Component Set,56,AIRLOOPHVAC:UNITARYSYSTEM,ZONE WAREHOUSE FINE B  - STORY GROUND PSZ-AC UNITARY AC,COIL:HEATING:FUEL,ZONE WAREHOUSE FINE B  - STORY GROUND PSZ-AC GAS HTG COIL 9KBTU/HR 0.8 THERMAL EFF,ZONE WAREHOUSE FINE B  - STORY GROUND PSZ-AC UNITARY AC COOLING COIL - HEATING COIL NODE,ZONE WAREHOUSE FINE B  - STORY GROUND PSZ-AC UNITARY AC HEATING COIL - FAN NODE,Air Nodes
 Component Set,57,AIRLOOPHVAC:UNITARYSYSTEM,ZONE WAREHOUSE FINE B END_B - STORY GROUND PSZ-AC UNITARY AC,COIL:HEATING:FUEL,ZONE WAREHOUSE FINE B END_B - STORY GROUND PSZ-AC GAS HTG COIL 30KBTU/HR 0.8 THERMAL EFF,ZONE WAREHOUSE FINE B END_B - STORY GROUND PSZ-AC UNITARY AC COOLING COIL - HEATING COIL NODE,ZONE WAREHOUSE FINE B END_B - STORY GROUND PSZ-AC UNITARY AC HEATING COIL - FAN NODE,Air Nodes
 Component Set,58,AIRLOOPHVAC:UNITARYSYSTEM,ZONE WAREHOUSE FINE C  - STORY GROUND PSZ-AC UNITARY AC,COIL:HEATING:FUEL,ZONE WAREHOUSE FINE C  - STORY GROUND PSZ-AC GAS HTG COIL 12KBTU/HR 0.8 THERMAL EFF,ZONE WAREHOUSE FINE C  - STORY GROUND PSZ-AC UNITARY AC COOLING COIL - HEATING COIL NODE,ZONE WAREHOUSE FINE C  - STORY GROUND PSZ-AC UNITARY AC HEATING COIL - FAN NODE,Air Nodes
 Component Set,59,AIRLOOPHVAC:UNITARYSYSTEM,ZONE WAREHOUSE FINE C END_B - STORY GROUND PSZ-AC UNITARY AC,COIL:HEATING:FUEL,ZONE WAREHOUSE FINE C END_B - STORY GROUND PSZ-AC GAS HTG COIL 19KBTU/HR 0.8 THERMAL EFF,ZONE WAREHOUSE FINE C END_B - STORY GROUND PSZ-AC UNITARY AC COOLING COIL - HEATING COIL NODE,ZONE WAREHOUSE FINE C END_B - STORY GROUND PSZ-AC UNITARY AC HEATING COIL - FAN NODE,Air Nodes
 Component Set,60,AIRLOOPHVAC:UNITARYSYSTEM,ZONE WAREHOUSE OFFICE A  - STORY GROUND PSZ-AC UNITARY AC,COIL:HEATING:FUEL,ZONE WAREHOUSE OFFICE A  - STORY GROUND PSZ-AC GAS HTG COIL 11KBTU/HR 0.8 THERMAL EFF,ZONE WAREHOUSE OFFICE A  - STORY GROUND PSZ-AC UNITARY AC COOLING COIL - HEATING COIL NODE,ZONE WAREHOUSE OFFICE A  - STORY GROUND PSZ-AC UNITARY AC HEATING COIL - FAN NODE,Air Nodes
 Component Set,61,AIRLOOPHVAC:UNITARYSYSTEM,ZONE WAREHOUSE OFFICE B  - STORY GROUND PSZ-AC UNITARY AC,COIL:HEATING:FUEL,ZONE WAREHOUSE OFFICE B  - STORY GROUND PSZ-AC GAS HTG COIL 18KBTU/HR 0.8 THERMAL EFF,ZONE WAREHOUSE OFFICE B  - STORY GROUND PSZ-AC UNITARY AC COOLING COIL - HEATING COIL NODE,ZONE WAREHOUSE OFFICE B  - STORY GROUND PSZ-AC UNITARY AC HEATING COIL - FAN NODE,Air Nodes
 Component Set,62,AIRLOOPHVAC:UNITARYSYSTEM,ZONE WAREHOUSE OFFICE C  - STORY GROUND PSZ-AC UNITARY AC,COIL:HEATING:FUEL,ZONE WAREHOUSE OFFICE C  - STORY GROUND PSZ-AC GAS HTG COIL 11KBTU/HR 0.8 THERMAL EFF,ZONE WAREHOUSE OFFICE C  - STORY GROUND PSZ-AC UNITARY AC COOLING COIL - HEATING COIL NODE,ZONE WAREHOUSE OFFICE C  - STORY GROUND PSZ-AC UNITARY AC HEATING COIL - FAN NODE,Air Nodes
 Component Set,63,AIRLOOPHVAC:UNITARYSYSTEM,ZONE WAREHOUSE FINE A  - STORY GROUND PSZ-AC UNITARY AC,FAN:ONOFF,ZONE WAREHOUSE FINE A  - STORY GROUND PSZ-AC FAN,ZONE WAREHOUSE FINE A  - STORY GROUND PSZ-AC UNITARY AC HEATING COIL - FAN NODE,ZONE WAREHOUSE FINE A  - STORY GROUND PSZ-AC UNITARY AC FAN - SUPPLEMENTAL COIL NODE,Air Nodes
 Component Set,64,AIRLOOPHVAC:UNITARYSYSTEM,ZONE WAREHOUSE FINE A END_B - STORY GROUND PSZ-AC UNITARY AC,FAN:ONOFF,ZONE WAREHOUSE FINE A END_B - STORY GROUND PSZ-AC FAN,ZONE WAREHOUSE FINE A END_B - STORY GROUND PSZ-AC UNITARY AC HEATING COIL - FAN NODE,ZONE WAREHOUSE FINE A END_B - STORY GROUND PSZ-AC UNITARY AC FAN - SUPPLEMENTAL COIL NODE,Air Nodes
 Component Set,65,AIRLOOPHVAC:UNITARYSYSTEM,ZONE WAREHOUSE FINE B  - STORY GROUND PSZ-AC UNITARY AC,FAN:ONOFF,ZONE WAREHOUSE FINE B  - STORY GROUND PSZ-AC FAN,ZONE WAREHOUSE FINE B  - STORY GROUND PSZ-AC UNITARY AC HEATING COIL - FAN NODE,ZONE WAREHOUSE FINE B  - STORY GROUND PSZ-AC UNITARY AC FAN - SUPPLEMENTAL COIL NODE,Air Nodes
 Component Set,66,AIRLOOPHVAC:UNITARYSYSTEM,ZONE WAREHOUSE FINE B END_B - STORY GROUND PSZ-AC UNITARY AC,FAN:ONOFF,ZONE WAREHOUSE FINE B END_B - STORY GROUND PSZ-AC FAN,ZONE WAREHOUSE FINE B END_B - STORY GROUND PSZ-AC UNITARY AC HEATING COIL - FAN NODE,ZONE WAREHOUSE FINE B END_B - STORY GROUND PSZ-AC UNITARY AC FAN - SUPPLEMENTAL COIL NODE,Air Nodes
 Component Set,67,AIRLOOPHVAC:UNITARYSYSTEM,ZONE WAREHOUSE FINE C  - STORY GROUND PSZ-AC UNITARY AC,FAN:ONOFF,ZONE WAREHOUSE FINE C  - STORY GROUND PSZ-AC FAN,ZONE WAREHOUSE FINE C  - STORY GROUND PSZ-AC UNITARY AC HEATING COIL - FAN NODE,ZONE WAREHOUSE FINE C  - STORY GROUND PSZ-AC UNITARY AC FAN - SUPPLEMENTAL COIL NODE,Air Nodes
 Component Set,68,AIRLOOPHVAC:UNITARYSYSTEM,ZONE WAREHOUSE FINE C END_B - STORY GROUND PSZ-AC UNITARY AC,FAN:ONOFF,ZONE WAREHOUSE FINE C END_B - STORY GROUND PSZ-AC FAN,ZONE WAREHOUSE FINE C END_B - STORY GROUND PSZ-AC UNITARY AC HEATING COIL - FAN NODE,ZONE WAREHOUSE FINE C END_B - STORY GROUND PSZ-AC UNITARY AC FAN - SUPPLEMENTAL COIL NODE,Air Nodes
 Component Set,69,AIRLOOPHVAC:UNITARYSYSTEM,ZONE WAREHOUSE OFFICE A  - STORY GROUND PSZ-AC UNITARY AC,FAN:ONOFF,ZONE WAREHOUSE OFFICE A  - STORY GROUND PSZ-AC FAN,ZONE WAREHOUSE OFFICE A  - STORY GROUND PSZ-AC UNITARY AC HEATING COIL - FAN NODE,ZONE WAREHOUSE OFFICE A  - STORY GROUND PSZ-AC UNITARY AC FAN - SUPPLEMENTAL COIL NODE,Air Nodes
 Component Set,70,AIRLOOPHVAC:UNITARYSYSTEM,ZONE WAREHOUSE OFFICE B  - STORY GROUND PSZ-AC UNITARY AC,FAN:ONOFF,ZONE WAREHOUSE OFFICE B  - STORY GROUND PSZ-AC FAN,ZONE WAREHOUSE OFFICE B  - STORY GROUND PSZ-AC UNITARY AC HEATING COIL - FAN NODE,ZONE WAREHOUSE OFFICE B  - STORY GROUND PSZ-AC UNITARY AC FAN - SUPPLEMENTAL COIL NODE,Air Nodes
 Component Set,71,AIRLOOPHVAC:UNITARYSYSTEM,ZONE WAREHOUSE OFFICE C  - STORY GROUND PSZ-AC UNITARY AC,FAN:ONOFF,ZONE WAREHOUSE OFFICE C  - STORY GROUND PSZ-AC FAN,ZONE WAREHOUSE OFFICE C  - STORY GROUND PSZ-AC UNITARY AC HEATING COIL - FAN NODE,ZONE WAREHOUSE OFFICE C  - STORY GROUND PSZ-AC UNITARY AC FAN - SUPPLEMENTAL COIL NODE,Air Nodes
 Component Set,72,AIRLOOPHVAC:UNITARYSYSTEM,ZONE WAREHOUSE FINE A  - STORY GROUND PSZ-AC UNITARY AC,COIL:COOLING:DX:SINGLESPEED,ZONE WAREHOUSE FINE A  - STORY GROUND PSZ-AC 1SPD DX AC CLG COIL 5KBTU/HR 9.7SEER,ZONE WAREHOUSE FINE A  - STORY GROUND PSZ-AC MIXED AIR NODE,ZONE WAREHOUSE FINE A  - STORY GROUND PSZ-AC UNITARY AC COOLING COIL - HEATING COIL NODE,Air Nodes
 Component Set,73,AIRLOOPHVAC:UNITARYSYSTEM,ZONE WAREHOUSE FINE A END_B - STORY GROUND PSZ-AC UNITARY AC,COIL:COOLING:DX:SINGLESPEED,ZONE WAREHOUSE FINE A END_B - STORY GROUND PSZ-AC 1SPD DX AC CLG COIL 8KBTU/HR 9.7SEER,ZONE WAREHOUSE FINE A END_B - STORY GROUND PSZ-AC MIXED AIR NODE,ZONE WAREHOUSE FINE A END_B - STORY GROUND PSZ-AC UNITARY AC COOLING COIL - HEATING COIL NODE,Air Nodes
 Component Set,74,AIRLOOPHVAC:UNITARYSYSTEM,ZONE WAREHOUSE FINE B  - STORY GROUND PSZ-AC UNITARY AC,COIL:COOLING:DX:SINGLESPEED,ZONE WAREHOUSE FINE B  - STORY GROUND PSZ-AC 1SPD DX AC CLG COIL 3KBTU/HR 9.7SEER,ZONE WAREHOUSE FINE B  - STORY GROUND PSZ-AC MIXED AIR NODE,ZONE WAREHOUSE FINE B  - STORY GROUND PSZ-AC UNITARY AC COOLING COIL - HEATING COIL NODE,Air Nodes
 Component Set,75,AIRLOOPHVAC:UNITARYSYSTEM,ZONE WAREHOUSE FINE B END_B - STORY GROUND PSZ-AC UNITARY AC,COIL:COOLING:DX:SINGLESPEED,ZONE WAREHOUSE FINE B END_B - STORY GROUND PSZ-AC 1SPD DX AC CLG COIL 11KBTU/HR 9.7SEER,ZONE WAREHOUSE FINE B END_B - STORY GROUND PSZ-AC MIXED AIR NODE,ZONE WAREHOUSE FINE B END_B - STORY GROUND PSZ-AC UNITARY AC COOLING COIL - HEATING COIL NODE,Air Nodes
 Component Set,76,AIRLOOPHVAC:UNITARYSYSTEM,ZONE WAREHOUSE FINE C  - STORY GROUND PSZ-AC UNITARY AC,COIL:COOLING:DX:SINGLESPEED,ZONE WAREHOUSE FINE C  - STORY GROUND PSZ-AC 1SPD DX AC CLG COIL 4KBTU/HR 9.7SEER,ZONE WAREHOUSE FINE C  - STORY GROUND PSZ-AC MIXED AIR NODE,ZONE WAREHOUSE FINE C  - STORY GROUND PSZ-AC UNITARY AC COOLING COIL - HEATING COIL NODE,Air Nodes
 Component Set,77,AIRLOOPHVAC:UNITARYSYSTEM,ZONE WAREHOUSE FINE C END_B - STORY GROUND PSZ-AC UNITARY AC,COIL:COOLING:DX:SINGLESPEED,ZONE WAREHOUSE FINE C END_B - STORY GROUND PSZ-AC 1SPD DX AC CLG COIL 7KBTU/HR 9.7SEER,ZONE WAREHOUSE FINE C END_B - STORY GROUND PSZ-AC MIXED AIR NODE,ZONE WAREHOUSE FINE C END_B - STORY GROUND PSZ-AC UNITARY AC COOLING COIL - HEATING COIL NODE,Air Nodes
 Component Set,78,AIRLOOPHVAC:UNITARYSYSTEM,ZONE WAREHOUSE OFFICE A  - STORY GROUND PSZ-AC UNITARY AC,COIL:COOLING:DX:SINGLESPEED,ZONE WAREHOUSE OFFICE A  - STORY GROUND PSZ-AC 1SPD DX AC CLG COIL 5KBTU/HR 9.7SEER,ZONE WAREHOUSE OFFICE A  - STORY GROUND PSZ-AC MIXED AIR NODE,ZONE WAREHOUSE OFFICE A  - STORY GROUND PSZ-AC UNITARY AC COOLING COIL - HEATING COIL NODE,Air Nodes
 Component Set,79,AIRLOOPHVAC:UNITARYSYSTEM,ZONE WAREHOUSE OFFICE B  - STORY GROUND PSZ-AC UNITARY AC,COIL:COOLING:DX:SINGLESPEED,ZONE WAREHOUSE OFFICE B  - STORY GROUND PSZ-AC 1SPD DX AC CLG COIL 8KBTU/HR 9.7SEER,ZONE WAREHOUSE OFFICE B  - STORY GROUND PSZ-AC MIXED AIR NODE,ZONE WAREHOUSE OFFICE B  - STORY GROUND PSZ-AC UNITARY AC COOLING COIL - HEATING COIL NODE,Air Nodes
 Component Set,80,AIRLOOPHVAC:UNITARYSYSTEM,ZONE WAREHOUSE OFFICE C  - STORY GROUND PSZ-AC UNITARY AC,COIL:COOLING:DX:SINGLESPEED,ZONE WAREHOUSE OFFICE C  - STORY GROUND PSZ-AC 1SPD DX AC CLG COIL 5KBTU/HR 9.7SEER,ZONE WAREHOUSE OFFICE C  - STORY GROUND PSZ-AC MIXED AIR NODE,ZONE WAREHOUSE OFFICE C  - STORY GROUND PSZ-AC UNITARY AC COOLING COIL - HEATING COIL NODE,Air Nodes
! ===============================================================
! <# Plant Loops>,<Number of Plant Loops>
 #Plant Loops,1
! <Plant Loop>,<Plant Loop Name>,<Loop Type>,<Inlet Node Name>,<Outlet Node Name>,<Branch List>,<Connector List>
! <Plant Loop Connector>,<Connector Type>,<Connector Name>,<Loop Name>,<Loop Type>,<Number of Inlets/Outlets>
! <Plant Loop Connector Branches>,<Connector Node Count>,<Connector Type>,<Connector Name>,<Inlet Branch>,<Outlet Branch>,<Loop Name>,<Loop Type>
! <Plant Loop Connector Nodes>,<Connector Node Count>,<Connector Type>,<Connector Name>,<Inlet Node>,<Outlet Node>,<Loop Name>,<Loop Type>
! <Plant Loop Supply Connection>,<Plant Loop Name>,<Supply Side Outlet Node Name>,<Demand Side Inlet Node Name>
! <Plant Loop Return Connection>,<Plant Loop Name>,<Demand Side Outlet Node Name>,<Supply Side Inlet Node Name>
 Plant Loop,MAIN SERVICE WATER LOOP,Demand,MAIN SERVICE WATER LOOP DEMAND INLET NODE,MAIN SERVICE WATER LOOP DEMAND OUTLET NODE,MAIN SERVICE WATER LOOP DEMAND BRANCHES,MAIN SERVICE WATER LOOP DEMAND CONNECTOR LIST
   Plant Loop Connector,Splitter,MAIN SERVICE WATER LOOP DEMAND SPLITTER,MAIN SERVICE WATER LOOP,Demand,2
     Plant Loop Connector Branches,1,Splitter,MAIN SERVICE WATER LOOP DEMAND SPLITTER,MAIN SERVICE WATER LOOP DEMAND INLET BRANCH,MAIN SERVICE WATER LOOP DEMAND BRANCH 1,MAIN SERVICE WATER LOOP,Demand
     Plant Loop Connector Nodes,   1,Splitter,MAIN SERVICE WATER LOOP DEMAND SPLITTER,MAIN SERVICE WATER LOOP DEMAND INLET PIPE NODE,PIPE ADIABATIC 2 INLET WATER NODE,MAIN SERVICE WATER LOOP,Demand
     Plant Loop Connector Branches,2,Splitter,MAIN SERVICE WATER LOOP DEMAND SPLITTER,MAIN SERVICE WATER LOOP DEMAND INLET BRANCH,MAIN SERVICE WATER LOOP DEMAND BYPASS BRANCH,MAIN SERVICE WATER LOOP,Demand
     Plant Loop Connector Nodes,   2,Splitter,MAIN SERVICE WATER LOOP DEMAND SPLITTER,MAIN SERVICE WATER LOOP DEMAND INLET PIPE NODE,MAIN SERVICE WATER LOOP DEMAND BYPASS PIPE INLET NODE,MAIN SERVICE WATER LOOP,Demand
   Plant Loop Connector,Mixer,MAIN SERVICE WATER LOOP DEMAND MIXER,MAIN SERVICE WATER LOOP,Demand,2
     Plant Loop Connector Branches,1,Mixer,MAIN SERVICE WATER LOOP DEMAND MIXER,MAIN SERVICE WATER LOOP DEMAND BRANCH 1,MAIN SERVICE WATER LOOP DEMAND OUTLET BRANCH,MAIN SERVICE WATER LOOP,Demand
     Plant Loop Connector Nodes,   1,Mixer,MAIN SERVICE WATER LOOP DEMAND MIXER,PIPE ADIABATIC 2 OUTLET WATER NODE,PIPE ADIABATIC 4 INLET WATER NODE,MAIN SERVICE WATER LOOP,Demand
     Plant Loop Connector Branches,2,Mixer,MAIN SERVICE WATER LOOP DEMAND MIXER,MAIN SERVICE WATER LOOP DEMAND BYPASS BRANCH,MAIN SERVICE WATER LOOP DEMAND OUTLET BRANCH,MAIN SERVICE WATER LOOP,Demand
     Plant Loop Connector Nodes,   2,Mixer,MAIN SERVICE WATER LOOP DEMAND MIXER,MAIN SERVICE WATER LOOP DEMAND BYPASS PIPE OUTLET NODE,PIPE ADIABATIC 4 INLET WATER NODE,MAIN SERVICE WATER LOOP,Demand
 Plant Loop,MAIN SERVICE WATER LOOP,Supply,MAIN SERVICE WATER LOOP SUPPLY INLET NODE,MAIN SERVICE WATER LOOP SUPPLY OUTLET NODE,MAIN SERVICE WATER LOOP SUPPLY BRANCHES,MAIN SERVICE WATER LOOP SUPPLY CONNECTOR LIST
   Plant Loop Connector,Splitter,MAIN SERVICE WATER LOOP SUPPLY SPLITTER,MAIN SERVICE WATER LOOP,Supply,2
     Plant Loop Connector Branches,1,Splitter,MAIN SERVICE WATER LOOP SUPPLY SPLITTER,MAIN SERVICE WATER LOOP SUPPLY INLET BRANCH,MAIN SERVICE WATER LOOP SUPPLY BRANCH 1,MAIN SERVICE WATER LOOP,Supply
     Plant Loop Connector Nodes,   1,Splitter,MAIN SERVICE WATER LOOP SUPPLY SPLITTER,MAIN SERVICE WATER LOOP WATER MAINS PRESSURE DRIVEN OUTLET WATER NODE,40GAL ELECTRICITY WATER HEATER - 40KBTU/HR 1.0 THERM EFF SUPPLY INLET WATER NODE,MAIN SERVICE WATER LOOP,Supply
     Plant Loop Connector Branches,2,Splitter,MAIN SERVICE WATER LOOP SUPPLY SPLITTER,MAIN SERVICE WATER LOOP SUPPLY INLET BRANCH,MAIN SERVICE WATER LOOP SUPPLY BRANCH 2,MAIN SERVICE WATER LOOP,Supply
     Plant Loop Connector Nodes,   2,Splitter,MAIN SERVICE WATER LOOP SUPPLY SPLITTER,MAIN SERVICE WATER LOOP WATER MAINS PRESSURE DRIVEN OUTLET WATER NODE,PIPE ADIABATIC 1 INLET WATER NODE,MAIN SERVICE WATER LOOP,Supply
   Plant Loop Connector,Mixer,MAIN SERVICE WATER LOOP SUPPLY MIXER,MAIN SERVICE WATER LOOP,Supply,2
     Plant Loop Connector Branches,1,Mixer,MAIN SERVICE WATER LOOP SUPPLY MIXER,MAIN SERVICE WATER LOOP SUPPLY BRANCH 1,MAIN SERVICE WATER LOOP SUPPLY OUTLET BRANCH,MAIN SERVICE WATER LOOP,Supply
     Plant Loop Connector Nodes,   1,Mixer,MAIN SERVICE WATER LOOP SUPPLY MIXER,40GAL ELECTRICITY WATER HEATER - 40KBTU/HR 1.0 THERM EFF SUPPLY OUTLET WATER NODE,PIPE ADIABATIC 3 INLET WATER NODE,MAIN SERVICE WATER LOOP,Supply
     Plant Loop Connector Branches,2,Mixer,MAIN SERVICE WATER LOOP SUPPLY MIXER,MAIN SERVICE WATER LOOP SUPPLY BRANCH 2,MAIN SERVICE WATER LOOP SUPPLY OUTLET BRANCH,MAIN SERVICE WATER LOOP,Supply
     Plant Loop Connector Nodes,   2,Mixer,MAIN SERVICE WATER LOOP SUPPLY MIXER,PIPE ADIABATIC 1 OUTLET WATER NODE,PIPE ADIABATIC 3 INLET WATER NODE,MAIN SERVICE WATER LOOP,Supply
 Plant Loop Supply Connection,MAIN SERVICE WATER LOOP,MAIN SERVICE WATER LOOP SUPPLY OUTLET NODE,MAIN SERVICE WATER LOOP DEMAND INLET NODE
 Plant Loop Return Connection,MAIN SERVICE WATER LOOP,MAIN SERVICE WATER LOOP DEMAND OUTLET NODE,MAIN SERVICE WATER LOOP SUPPLY INLET NODE
! ===============================================================
! <# Condenser Loops>,<Number of Condenser Loops>
 #Condenser Loops,0
! <Condenser Loop>,<Condenser Loop Name>,<Loop Type>,<Inlet Node Name>,<Outlet Node Name>,<Branch List>,<Connector List>
! <Condenser Loop Connector>,<Connector Type>,<Connector Name>,<Loop Name>,<Loop Type>,<Number of Inlets/Outlets>
! <Condenser Loop Connector Branches>,<Connector Node Count>,<Connector Type>,<Connector Name>,<Inlet Branch>,<Outlet Branch>,<Loop Name>,<Loop Type>
! <Condenser Loop Connector Nodes>,<Connector Node Count>,<Connector Type>,<Connector Name>,<Inlet Node>,<Outlet Node>,<Loop Name>,<Loop Type>
! <Condenser Loop Supply Connection>,<Condenser Loop Name>,<Supply Side Outlet Node Name>,<Demand Side Inlet Node Name>
! <Condenser Loop Return Connection>,<Condenser Loop Name>,<Demand Side Outlet Node Name>,<Supply Side Inlet Node Name>
! ===============================================================
! <# Controlled Zones>,<Number of Controlled Zones>
 #Controlled Zones,15
! <Controlled Zone>,<Controlled Zone Name>,<Equip List Name>,<Control List Name>,<Zone Node Name>,<# Inlet Nodes>,<# Exhaust Nodes>,<# Return Nodes>
! <Controlled Zone Inlet>,<Inlet Node Count>,<Controlled Zone Name>,<Supply Air Inlet Node Name>,<SD Sys:Cooling/Heating [DD:Cooling] Inlet Node Name>,<DD Sys:Heating Inlet Node Name>
! <Controlled Zone Exhaust>,<Exhaust Node Count>,<Controlled Zone Name>,<Exhaust Air Node Name>
 Controlled Zone,ZONE WAREHOUSE BULK A  - STORY GROUND,ZONE WAREHOUSE BULK A  - STORY GROUND EQUIPMENT LIST,,ZONE WAREHOUSE BULK A  - STORY GROUND ZONE AIR NODE,0,0,0
 Controlled Zone,ZONE WAREHOUSE BULK A END_A - STORY GROUND,ZONE WAREHOUSE BULK A END_A - STORY GROUND EQUIPMENT LIST,,ZONE WAREHOUSE BULK A END_A - STORY GROUND ZONE AIR NODE,0,0,0
 Controlled Zone,ZONE WAREHOUSE BULK B  - STORY GROUND,ZONE WAREHOUSE BULK B  - STORY GROUND EQUIPMENT LIST,,ZONE WAREHOUSE BULK B  - STORY GROUND ZONE AIR NODE,0,0,0
 Controlled Zone,ZONE WAREHOUSE BULK B END_A - STORY GROUND,ZONE WAREHOUSE BULK B END_A - STORY GROUND EQUIPMENT LIST,,ZONE WAREHOUSE BULK B END_A - STORY GROUND ZONE AIR NODE,0,0,0
 Controlled Zone,ZONE WAREHOUSE BULK C  - STORY GROUND,ZONE WAREHOUSE BULK C  - STORY GROUND EQUIPMENT LIST,,ZONE WAREHOUSE BULK C  - STORY GROUND ZONE AIR NODE,0,0,0
 Controlled Zone,ZONE WAREHOUSE BULK C END_A - STORY GROUND,ZONE WAREHOUSE BULK C END_A - STORY GROUND EQUIPMENT LIST,,ZONE WAREHOUSE BULK C END_A - STORY GROUND ZONE AIR NODE,0,0,0
 Controlled Zone,ZONE WAREHOUSE FINE A  - STORY GROUND,ZONE WAREHOUSE FINE A  - STORY GROUND EQUIPMENT LIST,,ZONE WAREHOUSE FINE A  - STORY GROUND ZONE AIR NODE,1,0,1
   Controlled Zone Inlet,1,ZONE WAREHOUSE FINE A  - STORY GROUND,ZONE WAREHOUSE FINE A  - STORY GROUND PSZ-AC DIFFUSER OUTLET AIR NODE,ZONE WAREHOUSE FINE A  - STORY GROUND PSZ-AC DIFFUSER INLET AIR NODE,N/A
   Controlled Zone Return,1,ZONE WAREHOUSE FINE A  - STORY GROUND,ZONE WAREHOUSE FINE A  - STORY GROUND RETURN AIR NODE
 Controlled Zone,ZONE WAREHOUSE FINE A END_B - STORY GROUND,ZONE WAREHOUSE FINE A END_B - STORY GROUND EQUIPMENT LIST,,ZONE WAREHOUSE FINE A END_B - STORY GROUND ZONE AIR NODE,1,0,1
   Controlled Zone Inlet,1,ZONE WAREHOUSE FINE A END_B - STORY GROUND,ZONE WAREHOUSE FINE A END_B - STORY GROUND PSZ-AC DIFFUSER OUTLET AIR NODE,ZONE WAREHOUSE FINE A END_B - STORY GROUND PSZ-AC DIFFUSER INLET AIR NODE,N/A
   Controlled Zone Return,1,ZONE WAREHOUSE FINE A END_B - STORY GROUND,ZONE WAREHOUSE FINE A END_B - STORY GROUND RETURN AIR NODE
 Controlled Zone,ZONE WAREHOUSE FINE B  - STORY GROUND,ZONE WAREHOUSE FINE B  - STORY GROUND EQUIPMENT LIST,,ZONE WAREHOUSE FINE B  - STORY GROUND ZONE AIR NODE,1,0,1
   Controlled Zone Inlet,1,ZONE WAREHOUSE FINE B  - STORY GROUND,ZONE WAREHOUSE FINE B  - STORY GROUND PSZ-AC DIFFUSER OUTLET AIR NODE,ZONE WAREHOUSE FINE B  - STORY GROUND PSZ-AC DIFFUSER INLET AIR NODE,N/A
   Controlled Zone Return,1,ZONE WAREHOUSE FINE B  - STORY GROUND,ZONE WAREHOUSE FINE B  - STORY GROUND RETURN AIR NODE
 Controlled Zone,ZONE WAREHOUSE FINE B END_B - STORY GROUND,ZONE WAREHOUSE FINE B END_B - STORY GROUND EQUIPMENT LIST,,ZONE WAREHOUSE FINE B END_B - STORY GROUND ZONE AIR NODE,1,0,1
   Controlled Zone Inlet,1,ZONE WAREHOUSE FINE B END_B - STORY GROUND,ZONE WAREHOUSE FINE B END_B - STORY GROUND PSZ-AC DIFFUSER OUTLET AIR NODE,ZONE WAREHOUSE FINE B END_B - STORY GROUND PSZ-AC DIFFUSER INLET AIR NODE,N/A
   Controlled Zone Return,1,ZONE WAREHOUSE FINE B END_B - STORY GROUND,ZONE WAREHOUSE FINE B END_B - STORY GROUND RETURN AIR NODE
 Controlled Zone,ZONE WAREHOUSE FINE C  - STORY GROUND,ZONE WAREHOUSE FINE C  - STORY GROUND EQUIPMENT LIST,,ZONE WAREHOUSE FINE C  - STORY GROUND ZONE AIR NODE,1,0,1
   Controlled Zone Inlet,1,ZONE WAREHOUSE FINE C  - STORY GROUND,ZONE WAREHOUSE FINE C  - STORY GROUND PSZ-AC DIFFUSER OUTLET AIR NODE,ZONE WAREHOUSE FINE C  - STORY GROUND PSZ-AC DIFFUSER INLET AIR NODE,N/A
   Controlled Zone Return,1,ZONE WAREHOUSE FINE C  - STORY GROUND,ZONE WAREHOUSE FINE C  - STORY GROUND RETURN AIR NODE
 Controlled Zone,ZONE WAREHOUSE FINE C END_B - STORY GROUND,ZONE WAREHOUSE FINE C END_B - STORY GROUND EQUIPMENT LIST,,ZONE WAREHOUSE FINE C END_B - STORY GROUND ZONE AIR NODE,1,0,1
   Controlled Zone Inlet,1,ZONE WAREHOUSE FINE C END_B - STORY GROUND,ZONE WAREHOUSE FINE C END_B - STORY GROUND PSZ-AC DIFFUSER OUTLET AIR NODE,ZONE WAREHOUSE FINE C END_B - STORY GROUND PSZ-AC DIFFUSER INLET AIR NODE,N/A
   Controlled Zone Return,1,ZONE WAREHOUSE FINE C END_B - STORY GROUND,ZONE WAREHOUSE FINE C END_B - STORY GROUND RETURN AIR NODE
 Controlled Zone,ZONE WAREHOUSE OFFICE A  - STORY GROUND,ZONE WAREHOUSE OFFICE A  - STORY GROUND EQUIPMENT LIST,,ZONE WAREHOUSE OFFICE A  - STORY GROUND ZONE AIR NODE,1,0,1
   Controlled Zone Inlet,1,ZONE WAREHOUSE OFFICE A  - STORY GROUND,ZONE WAREHOUSE OFFICE A  - STORY GROUND PSZ-AC DIFFUSER OUTLET AIR NODE,ZONE WAREHOUSE OFFICE A  - STORY GROUND PSZ-AC DIFFUSER INLET AIR NODE,N/A
   Controlled Zone Return,1,ZONE WAREHOUSE OFFICE A  - STORY GROUND,ZONE WAREHOUSE OFFICE A  - STORY GROUND RETURN AIR NODE
 Controlled Zone,ZONE WAREHOUSE OFFICE B  - STORY GROUND,ZONE WAREHOUSE OFFICE B  - STORY GROUND EQUIPMENT LIST,,ZONE WAREHOUSE OFFICE B  - STORY GROUND ZONE AIR NODE,1,0,1
   Controlled Zone Inlet,1,ZONE WAREHOUSE OFFICE B  - STORY GROUND,ZONE WAREHOUSE OFFICE B  - STORY GROUND PSZ-AC DIFFUSER OUTLET AIR NODE,ZONE WAREHOUSE OFFICE B  - STORY GROUND PSZ-AC DIFFUSER INLET AIR NODE,N/A
[...]
 Non-Parent Node Connection,ZONE WAREHOUSE OFFICE A  - STORY GROUND PSZ-AC UNITARY AC FAN - SUPPLEMENTAL COIL NODE,COIL:HEATING:ELECTRIC,ZONE WAREHOUSE OFFICE A  - STORY GROUND PSZ-AC NO HEAT,Inlet,1
 Non-Parent Node Connection,ZONE WAREHOUSE OFFICE A  - STORY GROUND PSZ-AC SUPPLY OUTLET NODE,COIL:HEATING:ELECTRIC,ZONE WAREHOUSE OFFICE A  - STORY GROUND PSZ-AC NO HEAT,Outlet,1
 Non-Parent Node Connection,ZONE WAREHOUSE OFFICE B  - STORY GROUND PSZ-AC UNITARY AC FAN - SUPPLEMENTAL COIL NODE,COIL:HEATING:ELECTRIC,ZONE WAREHOUSE OFFICE B  - STORY GROUND PSZ-AC NO HEAT,Inlet,1
 Non-Parent Node Connection,ZONE WAREHOUSE OFFICE B  - STORY GROUND PSZ-AC SUPPLY OUTLET NODE,COIL:HEATING:ELECTRIC,ZONE WAREHOUSE OFFICE B  - STORY GROUND PSZ-AC NO HEAT,Outlet,1
 Non-Parent Node Connection,ZONE WAREHOUSE OFFICE C  - STORY GROUND PSZ-AC UNITARY AC FAN - SUPPLEMENTAL COIL NODE,COIL:HEATING:ELECTRIC,ZONE WAREHOUSE OFFICE C  - STORY GROUND PSZ-AC NO HEAT,Inlet,1
 Non-Parent Node Connection,ZONE WAREHOUSE OFFICE C  - STORY GROUND PSZ-AC SUPPLY OUTLET NODE,COIL:HEATING:ELECTRIC,ZONE WAREHOUSE OFFICE C  - STORY GROUND PSZ-AC NO HEAT,Outlet,1
 Non-Parent Node Connection,ZONE WAREHOUSE FINE A  - STORY GROUND PSZ-AC UNITARY AC COOLING COIL - HEATING COIL NODE,COIL:HEATING:FUEL,ZONE WAREHOUSE FINE A  - STORY GROUND PSZ-AC GAS HTG COIL 12KBTU/HR 0.8 THERMAL EFF,Inlet,1
 Non-Parent Node Connection,ZONE WAREHOUSE FINE A  - STORY GROUND PSZ-AC UNITARY AC HEATING COIL - FAN NODE,COIL:HEATING:FUEL,ZONE WAREHOUSE FINE A  - STORY GROUND PSZ-AC GAS HTG COIL 12KBTU/HR 0.8 THERMAL EFF,Outlet,1
 Non-Parent Node Connection,ZONE WAREHOUSE FINE A END_B - STORY GROUND PSZ-AC UNITARY AC COOLING COIL - HEATING COIL NODE,COIL:HEATING:FUEL,ZONE WAREHOUSE FINE A END_B - STORY GROUND PSZ-AC GAS HTG COIL 19KBTU/HR 0.8 THERMAL EFF,Inlet,1
 Non-Parent Node Connection,ZONE WAREHOUSE FINE A END_B - STORY GROUND PSZ-AC UNITARY AC HEATING COIL - FAN NODE,COIL:HEATING:FUEL,ZONE WAREHOUSE FINE A END_B - STORY GROUND PSZ-AC GAS HTG COIL 19KBTU/HR 0.8 THERMAL EFF,Outlet,1
 Non-Parent Node Connection,ZONE WAREHOUSE FINE B  - STORY GROUND PSZ-AC UNITARY AC COOLING COIL - HEATING COIL NODE,COIL:HEATING:FUEL,ZONE WAREHOUSE FINE B  - STORY GROUND PSZ-AC GAS HTG COIL 9KBTU/HR 0.8 THERMAL EFF,Inlet,1
 Non-Parent Node Connection,ZONE WAREHOUSE FINE B  - STORY GROUND PSZ-AC UNITARY AC HEATING COIL - FAN NODE,COIL:HEATING:FUEL,ZONE WAREHOUSE FINE B  - STORY GROUND PSZ-AC GAS HTG COIL 9KBTU/HR 0.8 THERMAL EFF,Outlet,1
 Non-Parent Node Connection,ZONE WAREHOUSE FINE B END_B - STORY GROUND PSZ-AC UNITARY AC COOLING COIL - HEATING COIL NODE,COIL:HEATING:FUEL,ZONE WAREHOUSE FINE B END_B - STORY GROUND PSZ-AC GAS HTG COIL 30KBTU/HR 0.8 THERMAL EFF,Inlet,1
 Non-Parent Node Connection,ZONE WAREHOUSE FINE B END_B - STORY GROUND PSZ-AC UNITARY AC HEATING COIL - FAN NODE,COIL:HEATING:FUEL,ZONE WAREHOUSE FINE B END_B - STORY GROUND PSZ-AC GAS HTG COIL 30KBTU/HR 0.8 THERMAL EFF,Outlet,1
 Non-Parent Node Connection,ZONE WAREHOUSE FINE C  - STORY GROUND PSZ-AC UNITARY AC COOLING COIL - HEATING COIL NODE,COIL:HEATING:FUEL,ZONE WAREHOUSE FINE C  - STORY GROUND PSZ-AC GAS HTG COIL 12KBTU/HR 0.8 THERMAL EFF,Inlet,1
 Non-Parent Node Connection,ZONE WAREHOUSE FINE C  - STORY GROUND PSZ-AC UNITARY AC HEATING COIL - FAN NODE,COIL:HEATING:FUEL,ZONE WAREHOUSE FINE C  - STORY GROUND PSZ-AC GAS HTG COIL 12KBTU/HR 0.8 THERMAL EFF,Outlet,1
 Non-Parent Node Connection,ZONE WAREHOUSE FINE C END_B - STORY GROUND PSZ-AC UNITARY AC COOLING COIL - HEATING COIL NODE,COIL:HEATING:FUEL,ZONE WAREHOUSE FINE C END_B - STORY GROUND PSZ-AC GAS HTG COIL 19KBTU/HR 0.8 THERMAL EFF,Inlet,1
 Non-Parent Node Connection,ZONE WAREHOUSE FINE C END_B - STORY GROUND PSZ-AC UNITARY AC HEATING COIL - FAN NODE,COIL:HEATING:FUEL,ZONE WAREHOUSE FINE C END_B - STORY GROUND PSZ-AC GAS HTG COIL 19KBTU/HR 0.8 THERMAL EFF,Outlet,1
 Non-Parent Node Connection,ZONE WAREHOUSE OFFICE A  - STORY GROUND PSZ-AC UNITARY AC COOLING COIL - HEATING COIL NODE,COIL:HEATING:FUEL,ZONE WAREHOUSE OFFICE A  - STORY GROUND PSZ-AC GAS HTG COIL 11KBTU/HR 0.8 THERMAL EFF,Inlet,1
 Non-Parent Node Connection,ZONE WAREHOUSE OFFICE A  - STORY GROUND PSZ-AC UNITARY AC HEATING COIL - FAN NODE,COIL:HEATING:FUEL,ZONE WAREHOUSE OFFICE A  - STORY GROUND PSZ-AC GAS HTG COIL 11KBTU/HR 0.8 THERMAL EFF,Outlet,1
 Non-Parent Node Connection,ZONE WAREHOUSE OFFICE B  - STORY GROUND PSZ-AC UNITARY AC COOLING COIL - HEATING COIL NODE,COIL:HEATING:FUEL,ZONE WAREHOUSE OFFICE B  - STORY GROUND PSZ-AC GAS HTG COIL 18KBTU/HR 0.8 THERMAL EFF,Inlet,1
 Non-Parent Node Connection,ZONE WAREHOUSE OFFICE B  - STORY GROUND PSZ-AC UNITARY AC HEATING COIL - FAN NODE,COIL:HEATING:FUEL,ZONE WAREHOUSE OFFICE B  - STORY GROUND PSZ-AC GAS HTG COIL 18KBTU/HR 0.8 THERMAL EFF,Outlet,1
 Non-Parent Node Connection,ZONE WAREHOUSE OFFICE C  - STORY GROUND PSZ-AC UNITARY AC COOLING COIL - HEATING COIL NODE,COIL:HEATING:FUEL,ZONE WAREHOUSE OFFICE C  - STORY GROUND PSZ-AC GAS HTG COIL 11KBTU/HR 0.8 THERMAL EFF,Inlet,1
 Non-Parent Node Connection,ZONE WAREHOUSE OFFICE C  - STORY GROUND PSZ-AC UNITARY AC HEATING COIL - FAN NODE,COIL:HEATING:FUEL,ZONE WAREHOUSE OFFICE C  - STORY GROUND PSZ-AC GAS HTG COIL 11KBTU/HR 0.8 THERMAL EFF,Outlet,1
 Non-Parent Node Connection,ZONE WAREHOUSE FINE A  - STORY GROUND PSZ-AC UNITARY AC HEATING COIL - FAN NODE,FAN:ONOFF,ZONE WAREHOUSE FINE A  - STORY GROUND PSZ-AC FAN,Inlet,1
 Non-Parent Node Connection,ZONE WAREHOUSE FINE A  - STORY GROUND PSZ-AC UNITARY AC FAN - SUPPLEMENTAL COIL NODE,FAN:ONOFF,ZONE WAREHOUSE FINE A  - STORY GROUND PSZ-AC FAN,Outlet,1
 Non-Parent Node Connection,ZONE WAREHOUSE FINE A END_B - STORY GROUND PSZ-AC UNITARY AC HEATING COIL - FAN NODE,FAN:ONOFF,ZONE WAREHOUSE FINE A END_B - STORY GROUND PSZ-AC FAN,Inlet,1
 Non-Parent Node Connection,ZONE WAREHOUSE FINE A END_B - STORY GROUND PSZ-AC UNITARY AC FAN - SUPPLEMENTAL COIL NODE,FAN:ONOFF,ZONE WAREHOUSE FINE A END_B - STORY GROUND PSZ-AC FAN,Outlet,1
 Non-Parent Node Connection,ZONE WAREHOUSE FINE B  - STORY GROUND PSZ-AC UNITARY AC HEATING COIL - FAN NODE,FAN:ONOFF,ZONE WAREHOUSE FINE B  - STORY GROUND PSZ-AC FAN,Inlet,1
 Non-Parent Node Connection,ZONE WAREHOUSE FINE B  - STORY GROUND PSZ-AC UNITARY AC FAN - SUPPLEMENTAL COIL NODE,FAN:ONOFF,ZONE WAREHOUSE FINE B  - STORY GROUND PSZ-AC FAN,Outlet,1
 Non-Parent Node Connection,ZONE WAREHOUSE FINE B END_B - STORY GROUND PSZ-AC UNITARY AC HEATING COIL - FAN NODE,FAN:ONOFF,ZONE WAREHOUSE FINE B END_B - STORY GROUND PSZ-AC FAN,Inlet,1
 Non-Parent Node Connection,ZONE WAREHOUSE FINE B END_B - STORY GROUND PSZ-AC UNITARY AC FAN - SUPPLEMENTAL COIL NODE,FAN:ONOFF,ZONE WAREHOUSE FINE B END_B - STORY GROUND PSZ-AC FAN,Outlet,1
 Non-Parent Node Connection,ZONE WAREHOUSE FINE C  - STORY GROUND PSZ-AC UNITARY AC HEATING COIL - FAN NODE,FAN:ONOFF,ZONE WAREHOUSE FINE C  - STORY GROUND PSZ-AC FAN,Inlet,1
 Non-Parent Node Connection,ZONE WAREHOUSE FINE C  - STORY GROUND PSZ-AC UNITARY AC FAN - SUPPLEMENTAL COIL NODE,FAN:ONOFF,ZONE WAREHOUSE FINE C  - STORY GROUND PSZ-AC FAN,Outlet,1
 Non-Parent Node Connection,ZONE WAREHOUSE FINE C END_B - STORY GROUND PSZ-AC UNITARY AC HEATING COIL - FAN NODE,FAN:ONOFF,ZONE WAREHOUSE FINE C END_B - STORY GROUND PSZ-AC FAN,Inlet,1
 Non-Parent Node Connection,ZONE WAREHOUSE FINE C END_B - STORY GROUND PSZ-AC UNITARY AC FAN - SUPPLEMENTAL COIL NODE,FAN:ONOFF,ZONE WAREHOUSE FINE C END_B - STORY GROUND PSZ-AC FAN,Outlet,1
 Non-Parent Node Connection,ZONE WAREHOUSE OFFICE A  - STORY GROUND PSZ-AC UNITARY AC HEATING COIL - FAN NODE,FAN:ONOFF,ZONE WAREHOUSE OFFICE A  - STORY GROUND PSZ-AC FAN,Inlet,1
 Non-Parent Node Connection,ZONE WAREHOUSE OFFICE A  - STORY GROUND PSZ-AC UNITARY AC FAN - SUPPLEMENTAL COIL NODE,FAN:ONOFF,ZONE WAREHOUSE OFFICE A  - STORY GROUND PSZ-AC FAN,Outlet,1
 Non-Parent Node Connection,ZONE WAREHOUSE OFFICE B  - STORY GROUND PSZ-AC UNITARY AC HEATING COIL - FAN NODE,FAN:ONOFF,ZONE WAREHOUSE OFFICE B  - STORY GROUND PSZ-AC FAN,Inlet,1
 Non-Parent Node Connection,ZONE WAREHOUSE OFFICE B  - STORY GROUND PSZ-AC UNITARY AC FAN - SUPPLEMENTAL COIL NODE,FAN:ONOFF,ZONE WAREHOUSE OFFICE B  - STORY GROUND PSZ-AC FAN,Outlet,1
 Non-Parent Node Connection,ZONE WAREHOUSE OFFICE C  - STORY GROUND PSZ-AC UNITARY AC HEATING COIL - FAN NODE,FAN:ONOFF,ZONE WAREHOUSE OFFICE C  - STORY GROUND PSZ-AC FAN,Inlet,1
 Non-Parent Node Connection,ZONE WAREHOUSE OFFICE C  - STORY GROUND PSZ-AC UNITARY AC FAN - SUPPLEMENTAL COIL NODE,FAN:ONOFF,ZONE WAREHOUSE OFFICE C  - STORY GROUND PSZ-AC FAN,Outlet,1
 Non-Parent Node Connection,ZONE WAREHOUSE FINE A  - STORY GROUND PSZ-AC MIXED AIR NODE,COIL:COOLING:DX:SINGLESPEED,ZONE WAREHOUSE FINE A  - STORY GROUND PSZ-AC 1SPD DX AC CLG COIL 5KBTU/HR 9.7SEER,Inlet,1
 Non-Parent Node Connection,ZONE WAREHOUSE FINE A  - STORY GROUND PSZ-AC UNITARY AC COOLING COIL - HEATING COIL NODE,COIL:COOLING:DX:SINGLESPEED,ZONE WAREHOUSE FINE A  - STORY GROUND PSZ-AC 1SPD DX AC CLG COIL 5KBTU/HR 9.7SEER,Outlet,1
 Non-Parent Node Connection,ZONE WAREHOUSE FINE A END_B - STORY GROUND PSZ-AC MIXED AIR NODE,COIL:COOLING:DX:SINGLESPEED,ZONE WAREHOUSE FINE A END_B - STORY GROUND PSZ-AC 1SPD DX AC CLG COIL 8KBTU/HR 9.7SEER,Inlet,1
 Non-Parent Node Connection,ZONE WAREHOUSE FINE A END_B - STORY GROUND PSZ-AC UNITARY AC COOLING COIL - HEATING COIL NODE,COIL:COOLING:DX:SINGLESPEED,ZONE WAREHOUSE FINE A END_B - STORY GROUND PSZ-AC 1SPD DX AC CLG COIL 8KBTU/HR 9.7SEER,Outlet,1
 Non-Parent Node Connection,ZONE WAREHOUSE FINE B  - STORY GROUND PSZ-AC MIXED AIR NODE,COIL:COOLING:DX:SINGLESPEED,ZONE WAREHOUSE FINE B  - STORY GROUND PSZ-AC 1SPD DX AC CLG COIL 3KBTU/HR 9.7SEER,Inlet,1
 Non-Parent Node Connection,ZONE WAREHOUSE FINE B  - STORY GROUND PSZ-AC UNITARY AC COOLING COIL - HEATING COIL NODE,COIL:COOLING:DX:SINGLESPEED,ZONE WAREHOUSE FINE B  - STORY GROUND PSZ-AC 1SPD DX AC CLG COIL 3KBTU/HR 9.7SEER,Outlet,1
 Non-Parent Node Connection,ZONE WAREHOUSE FINE B END_B - STORY GROUND PSZ-AC MIXED AIR NODE,COIL:COOLING:DX:SINGLESPEED,ZONE WAREHOUSE FINE B END_B - STORY GROUND PSZ-AC 1SPD DX AC CLG COIL 11KBTU/HR 9.7SEER,Inlet,1
 Non-Parent Node Connection,ZONE WAREHOUSE FINE B END_B - STORY GROUND PSZ-AC UNITARY AC COOLING COIL - HEATING COIL NODE,COIL:COOLING:DX:SINGLESPEED,ZONE WAREHOUSE FINE B END_B - STORY GROUND PSZ-AC 1SPD DX AC CLG COIL 11KBTU/HR 9.7SEER,Outlet,1
 Non-Parent Node Connection,ZONE WAREHOUSE FINE C  - STORY GROUND PSZ-AC MIXED AIR NODE,COIL:COOLING:DX:SINGLESPEED,ZONE WAREHOUSE FINE C  - STORY GROUND PSZ-AC 1SPD DX AC CLG COIL 4KBTU/HR 9.7SEER,Inlet,1
 Non-Parent Node Connection,ZONE WAREHOUSE FINE C  - STORY GROUND PSZ-AC UNITARY AC COOLING COIL - HEATING COIL NODE,COIL:COOLING:DX:SINGLESPEED,ZONE WAREHOUSE FINE C  - STORY GROUND PSZ-AC 1SPD DX AC CLG COIL 4KBTU/HR 9.7SEER,Outlet,1
 Non-Parent Node Connection,ZONE WAREHOUSE FINE C END_B - STORY GROUND PSZ-AC MIXED AIR NODE,COIL:COOLING:DX:SINGLESPEED,ZONE WAREHOUSE FINE C END_B - STORY GROUND PSZ-AC 1SPD DX AC CLG COIL 7KBTU/HR 9.7SEER,Inlet,1
 Non-Parent Node Connection,ZONE WAREHOUSE FINE C END_B - STORY GROUND PSZ-AC UNITARY AC COOLING COIL - HEATING COIL NODE,COIL:COOLING:DX:SINGLESPEED,ZONE WAREHOUSE FINE C END_B - STORY GROUND PSZ-AC 1SPD DX AC CLG COIL 7KBTU/HR 9.7SEER,Outlet,1
 Non-Parent Node Connection,ZONE WAREHOUSE OFFICE A  - STORY GROUND PSZ-AC MIXED AIR NODE,COIL:COOLING:DX:SINGLESPEED,ZONE WAREHOUSE OFFICE A  - STORY GROUND PSZ-AC 1SPD DX AC CLG COIL 5KBTU/HR 9.7SEER,Inlet,1
 Non-Parent Node Connection,ZONE WAREHOUSE OFFICE A  - STORY GROUND PSZ-AC UNITARY AC COOLING COIL - HEATING COIL NODE,COIL:COOLING:DX:SINGLESPEED,ZONE WAREHOUSE OFFICE A  - STORY GROUND PSZ-AC 1SPD DX AC CLG COIL 5KBTU/HR 9.7SEER,Outlet,1
 Non-Parent Node Connection,ZONE WAREHOUSE OFFICE B  - STORY GROUND PSZ-AC MIXED AIR NODE,COIL:COOLING:DX:SINGLESPEED,ZONE WAREHOUSE OFFICE B  - STORY GROUND PSZ-AC 1SPD DX AC CLG COIL 8KBTU/HR 9.7SEER,Inlet,1
 Non-Parent Node Connection,ZONE WAREHOUSE OFFICE B  - STORY GROUND PSZ-AC UNITARY AC COOLING COIL - HEATING COIL NODE,COIL:COOLING:DX:SINGLESPEED,ZONE WAREHOUSE OFFICE B  - STORY GROUND PSZ-AC 1SPD DX AC CLG COIL 8KBTU/HR 9.7SEER,Outlet,1
 Non-Parent Node Connection,ZONE WAREHOUSE OFFICE C  - STORY GROUND PSZ-AC MIXED AIR NODE,COIL:COOLING:DX:SINGLESPEED,ZONE WAREHOUSE OFFICE C  - STORY GROUND PSZ-AC 1SPD DX AC CLG COIL 5KBTU/HR 9.7SEER,Inlet,1
 Non-Parent Node Connection,ZONE WAREHOUSE OFFICE C  - STORY GROUND PSZ-AC UNITARY AC COOLING COIL - HEATING COIL NODE,COIL:COOLING:DX:SINGLESPEED,ZONE WAREHOUSE OFFICE C  - STORY GROUND PSZ-AC 1SPD DX AC CLG COIL 5KBTU/HR 9.7SEER,Outlet,1
 Non-Parent Node Connection,ZONE WAREHOUSE FINE A  - STORY GROUND PSZ-AC MIXED AIR NODE,CONTROLLER:OUTDOORAIR,ZONE WAREHOUSE FINE A  - STORY GROUND PSZ-AC OA SYSTEM CONTROLLER,Sensor,1
 Non-Parent Node Connection,ZONE WAREHOUSE FINE A  - STORY GROUND PSZ-AC OUTDOOR AIR NODE,CONTROLLER:OUTDOORAIR,ZONE WAREHOUSE FINE A  - STORY GROUND PSZ-AC OA SYSTEM CONTROLLER,Actuator,1
 Non-Parent Node Connection,ZONE WAREHOUSE FINE A  - STORY GROUND PSZ-AC RELIEF AIR NODE,CONTROLLER:OUTDOORAIR,ZONE WAREHOUSE FINE A  - STORY GROUND PSZ-AC OA SYSTEM CONTROLLER,Actuator,1
 Non-Parent Node Connection,ZONE WAREHOUSE FINE A  - STORY GROUND PSZ-AC SUPPLY INLET NODE,CONTROLLER:OUTDOORAIR,ZONE WAREHOUSE FINE A  - STORY GROUND PSZ-AC OA SYSTEM CONTROLLER,Sensor,1
 Non-Parent Node Connection,ZONE WAREHOUSE FINE A END_B - STORY GROUND PSZ-AC MIXED AIR NODE,CONTROLLER:OUTDOORAIR,ZONE WAREHOUSE FINE A END_B - STORY GROUND PSZ-AC OA SYSTEM CONTROLLER,Sensor,1
 Non-Parent Node Connection,ZONE WAREHOUSE FINE A END_B - STORY GROUND PSZ-AC OUTDOOR AIR NODE,CONTROLLER:OUTDOORAIR,ZONE WAREHOUSE FINE A END_B - STORY GROUND PSZ-AC OA SYSTEM CONTROLLER,Actuator,1
 Non-Parent Node Connection,ZONE WAREHOUSE FINE A END_B - STORY GROUND PSZ-AC RELIEF AIR NODE,CONTROLLER:OUTDOORAIR,ZONE WAREHOUSE FINE A END_B - STORY GROUND PSZ-AC OA SYSTEM CONTROLLER,Actuator,1
 Non-Parent Node Connection,ZONE WAREHOUSE FINE A END_B - STORY GROUND PSZ-AC SUPPLY INLET NODE,CONTROLLER:OUTDOORAIR,ZONE WAREHOUSE FINE A END_B - STORY GROUND PSZ-AC OA SYSTEM CONTROLLER,Sensor,1
 Non-Parent Node Connection,ZONE WAREHOUSE FINE B  - STORY GROUND PSZ-AC MIXED AIR NODE,CONTROLLER:OUTDOORAIR,ZONE WAREHOUSE FINE B  - STORY GROUND PSZ-AC OA SYSTEM CONTROLLER,Sensor,1
 Non-Parent Node Connection,ZONE WAREHOUSE FINE B  - STORY GROUND PSZ-AC OUTDOOR AIR NODE,CONTROLLER:OUTDOORAIR,ZONE WAREHOUSE FINE B  - STORY GROUND PSZ-AC OA SYSTEM CONTROLLER,Actuator,1
 Non-Parent Node Connection,ZONE WAREHOUSE FINE B  - STORY GROUND PSZ-AC RELIEF AIR NODE,CONTROLLER:OUTDOORAIR,ZONE WAREHOUSE FINE B  - STORY GROUND PSZ-AC OA SYSTEM CONTROLLER,Actuator,1
 Non-Parent Node Connection,ZONE WAREHOUSE FINE B  - STORY GROUND PSZ-AC SUPPLY INLET NODE,CONTROLLER:OUTDOORAIR,ZONE WAREHOUSE FINE B  - STORY GROUND PSZ-AC OA SYSTEM CONTROLLER,Sensor,1
 Non-Parent Node Connection,ZONE WAREHOUSE FINE B END_B - STORY GROUND PSZ-AC MIXED AIR NODE,CONTROLLER:OUTDOORAIR,ZONE WAREHOUSE FINE B END_B - STORY GROUND PSZ-AC OA SYSTEM CONTROLLER,Sensor,1
 Non-Parent Node Connection,ZONE WAREHOUSE FINE B END_B - STORY GROUND PSZ-AC OUTDOOR AIR NODE,CONTROLLER:OUTDOORAIR,ZONE WAREHOUSE FINE B END_B - STORY GROUND PSZ-AC OA SYSTEM CONTROLLER,Actuator,1
 Non-Parent Node Connection,ZONE WAREHOUSE FINE B END_B - STORY GROUND PSZ-AC RELIEF AIR NODE,CONTROLLER:OUTDOORAIR,ZONE WAREHOUSE FINE B END_B - STORY GROUND PSZ-AC OA SYSTEM CONTROLLER,Actuator,1
 Non-Parent Node Connection,ZONE WAREHOUSE FINE B END_B - STORY GROUND PSZ-AC SUPPLY INLET NODE,CONTROLLER:OUTDOORAIR,ZONE WAREHOUSE FINE B END_B - STORY GROUND PSZ-AC OA SYSTEM CONTROLLER,Sensor,1
 Non-Parent Node Connection,ZONE WAREHOUSE FINE C  - STORY GROUND PSZ-AC MIXED AIR NODE,CONTROLLER:OUTDOORAIR,ZONE WAREHOUSE FINE C  - STORY GROUND PSZ-AC OA SYSTEM CONTROLLER,Sensor,1
 Non-Parent Node Connection,ZONE WAREHOUSE FINE C  - STORY GROUND PSZ-AC OUTDOOR AIR NODE,CONTROLLER:OUTDOORAIR,ZONE WAREHOUSE FINE C  - STORY GROUND PSZ-AC OA SYSTEM CONTROLLER,Actuator,1
 Non-Parent Node Connection,ZONE WAREHOUSE FINE C  - STORY GROUND PSZ-AC RELIEF AIR NODE,CONTROLLER:OUTDOORAIR,ZONE WAREHOUSE FINE C  - STORY GROUND PSZ-AC OA SYSTEM CONTROLLER,Actuator,1
 Non-Parent Node Connection,ZONE WAREHOUSE FINE C  - STORY GROUND PSZ-AC SUPPLY INLET NODE,CONTROLLER:OUTDOORAIR,ZONE WAREHOUSE FINE C  - STORY GROUND PSZ-AC OA SYSTEM CONTROLLER,Sensor,1
 Non-Parent Node Connection,ZONE WAREHOUSE FINE C END_B - STORY GROUND PSZ-AC MIXED AIR NODE,CONTROLLER:OUTDOORAIR,ZONE WAREHOUSE FINE C END_B - STORY GROUND PSZ-AC OA SYSTEM CONTROLLER,Sensor,1
 Non-Parent Node Connection,ZONE WAREHOUSE FINE C END_B - STORY GROUND PSZ-AC OUTDOOR AIR NODE,CONTROLLER:OUTDOORAIR,ZONE WAREHOUSE FINE C END_B - STORY GROUND PSZ-AC OA SYSTEM CONTROLLER,Actuator,1
 Non-Parent Node Connection,ZONE WAREHOUSE FINE C END_B - STORY GROUND PSZ-AC RELIEF AIR NODE,CONTROLLER:OUTDOORAIR,ZONE WAREHOUSE FINE C END_B - STORY GROUND PSZ-AC OA SYSTEM CONTROLLER,Actuator,1
 Non-Parent Node Connection,ZONE WAREHOUSE FINE C END_B - STORY GROUND PSZ-AC SUPPLY INLET NODE,CONTROLLER:OUTDOORAIR,ZONE WAREHOUSE FINE C END_B - STORY GROUND PSZ-AC OA SYSTEM CONTROLLER,Sensor,1
 Non-Parent Node Connection,ZONE WAREHOUSE OFFICE A  - STORY GROUND PSZ-AC MIXED AIR NODE,CONTROLLER:OUTDOORAIR,ZONE WAREHOUSE OFFICE A  - STORY GROUND PSZ-AC OA SYSTEM CONTROLLER,Sensor,1
 Non-Parent Node Connection,ZONE WAREHOUSE OFFICE A  - STORY GROUND PSZ-AC OUTDOOR AIR NODE,CONTROLLER:OUTDOORAIR,ZONE WAREHOUSE OFFICE A  - STORY GROUND PSZ-AC OA SYSTEM CONTROLLER,Actuator,1
 Non-Parent Node Connection,ZONE WAREHOUSE OFFICE A  - STORY GROUND PSZ-AC RELIEF AIR NODE,CONTROLLER:OUTDOORAIR,ZONE WAREHOUSE OFFICE A  - STORY GROUND PSZ-AC OA SYSTEM CONTROLLER,Actuator,1
 Non-Parent Node Connection,ZONE WAREHOUSE OFFICE A  - STORY GROUND PSZ-AC SUPPLY INLET NODE,CONTROLLER:OUTDOORAIR,ZONE WAREHOUSE OFFICE A  - STORY GROUND PSZ-AC OA SYSTEM CONTROLLER,Sensor,1
 Non-Parent Node Connection,ZONE WAREHOUSE OFFICE B  - STORY GROUND PSZ-AC MIXED AIR NODE,CONTROLLER:OUTDOORAIR,ZONE WAREHOUSE OFFICE B  - STORY GROUND PSZ-AC OA SYSTEM CONTROLLER,Sensor,1
 Non-Parent Node Connection,ZONE WAREHOUSE OFFICE B  - STORY GROUND PSZ-AC OUTDOOR AIR NODE,CONTROLLER:OUTDOORAIR,ZONE WAREHOUSE OFFICE B  - STORY GROUND PSZ-AC OA SYSTEM CONTROLLER,Actuator,1
 Non-Parent Node Connection,ZONE WAREHOUSE OFFICE B  - STORY GROUND PSZ-AC RELIEF AIR NODE,CONTROLLER:OUTDOORAIR,ZONE WAREHOUSE OFFICE B  - STORY GROUND PSZ-AC OA SYSTEM CONTROLLER,Actuator,1
 Non-Parent Node Connection,ZONE WAREHOUSE OFFICE B  - STORY GROUND PSZ-AC SUPPLY INLET NODE,CONTROLLER:OUTDOORAIR,ZONE WAREHOUSE OFFICE B  - STORY GROUND PSZ-AC OA SYSTEM CONTROLLER,Sensor,1
 Non-Parent Node Connection,ZONE WAREHOUSE OFFICE C  - STORY GROUND PSZ-AC MIXED AIR NODE,CONTROLLER:OUTDOORAIR,ZONE WAREHOUSE OFFICE C  - STORY GROUND PSZ-AC OA SYSTEM CONTROLLER,Sensor,1
 Non-Parent Node Connection,ZONE WAREHOUSE OFFICE C  - STORY GROUND PSZ-AC OUTDOOR AIR NODE,CONTROLLER:OUTDOORAIR,ZONE WAREHOUSE OFFICE C  - STORY GROUND PSZ-AC OA SYSTEM CONTROLLER,Actuator,1
 Non-Parent Node Connection,ZONE WAREHOUSE OFFICE C  - STORY GROUND PSZ-AC RELIEF AIR NODE,CONTROLLER:OUTDOORAIR,ZONE WAREHOUSE OFFICE C  - STORY GROUND PSZ-AC OA SYSTEM CONTROLLER,Actuator,1
 Non-Parent Node Connection,ZONE WAREHOUSE OFFICE C  - STORY GROUND PSZ-AC SUPPLY INLET NODE,CONTROLLER:OUTDOORAIR,ZONE WAREHOUSE OFFICE C  - STORY GROUND PSZ-AC OA SYSTEM CONTROLLER,Sensor,1
 Non-Parent Node Connection,MAIN SERVICE WATER LOOP SUPPLY INLET NODE,PUMP:VARIABLESPEED,MAIN SERVICE WATER LOOP WATER MAINS PRESSURE DRIVEN,Inlet,1
 Non-Parent Node Connection,MAIN SERVICE WATER LOOP WATER MAINS PRESSURE DRIVEN OUTLET WATER NODE,PUMP:VARIABLESPEED,MAIN SERVICE WATER LOOP WATER MAINS PRESSURE DRIVEN,Outlet,1
