Program Version,EnergyPlus, Version 22.2.0-aa78da9668, YMD=2023.04.10 12:11
! <Version>, Version ID
 Version, 22.2
! <Timesteps per Hour>, #TimeSteps, Minutes per TimeStep {minutes}
 Timesteps per Hour,  6, 10
! <System Convergence Limits>, Minimum System TimeStep {minutes}, Max HVAC Iterations, Minimum Plant Iterations, Maximum Plant Iterations
 System Convergence Limits, 1, 20, 2, 8
! <Simulation Control>, Do Zone Sizing, Do System Sizing, Do Plant Sizing, Do Design Days, Do Weather Simulation, Do HVAC Sizing Simulation
 Simulation Control, Yes, Yes, Yes, Yes, No, Yes
! <Performance Precision Tradeoffs>, Use Coil Direct Simulation, Zone Radiant Exchange Algorithm, Override Mode, Number of Timestep In Hour, Force Euler Method, Minimum Number of Warmup Days, Force Suppress All Begin Environment Resets, Minimum System Timestep, MaxZoneTempDiff, MaxAllowedDelTemp
 Performance Precision Tradeoffs, No, ScriptF, Normal, 6, No, 1, No, 1.0, 0.300, 2.0000E-003
! <Output Reporting Tolerances>, Tolerance for Time Heating Setpoint Not Met, Tolerance for Zone Cooling Setpoint Not Met Time
 Output Reporting Tolerances, 0.200, 0.200, 
! <Site:GroundTemperature:BuildingSurface>,Jan{C},Feb{C},Mar{C},Apr{C},May{C},Jun{C},Jul{C},Aug{C},Sep{C},Oct{C},Nov{C},Dec{C}
 Site:GroundTemperature:BuildingSurface,  18.00,  18.00,  18.00,  18.00,  18.00,  18.00,  18.00,  18.00,  18.00,  18.00,  18.00,  18.00
! <Site:GroundTemperature:FCfactorMethod>,Jan{C},Feb{C},Mar{C},Apr{C},May{C},Jun{C},Jul{C},Aug{C},Sep{C},Oct{C},Nov{C},Dec{C}
 Site:GroundTemperature:FCfactorMethod,  -3.10, -17.70, -19.30, -17.60, -15.40, -10.30,   0.70,  10.60,  16.00,  16.90,  14.20,   6.70
! <Site:GroundTemperature:Shallow>,Jan{C},Feb{C},Mar{C},Apr{C},May{C},Jun{C},Jul{C},Aug{C},Sep{C},Oct{C},Nov{C},Dec{C}
 Site:GroundTemperature:Shallow,  13.00,  13.00,  13.00,  13.00,  13.00,  13.00,  13.00,  13.00,  13.00,  13.00,  13.00,  13.00
! <Site:GroundTemperature:Deep>,Jan{C},Feb{C},Mar{C},Apr{C},May{C},Jun{C},Jul{C},Aug{C},Sep{C},Oct{C},Nov{C},Dec{C}
 Site:GroundTemperature:Deep,  16.00,  16.00,  16.00,  16.00,  16.00,  16.00,  16.00,  16.00,  16.00,  16.00,  16.00,  16.00
! <Site:GroundReflectance>,Jan{dimensionless},Feb{dimensionless},Mar{dimensionless},Apr{dimensionless},May{dimensionless},Jun{dimensionless},Jul{dimensionless},Aug{dimensionless},Sep{dimensionless},Oct{dimensionless},Nov{dimensionless},Dec{dimensionless}
 Site:GroundReflectance,  0.20,  0.20,  0.20,  0.20,  0.20,  0.20,  0.20,  0.20,  0.20,  0.20,  0.20,  0.20
! <Site:GroundReflectance:SnowModifier>, Normal, Daylighting {dimensionless}
 Site:GroundReflectance:SnowModifier,   1.000,   1.000
! <Site:GroundReflectance:Snow>,Jan{dimensionless},Feb{dimensionless},Mar{dimensionless},Apr{dimensionless},May{dimensionless},Jun{dimensionless},Jul{dimensionless},Aug{dimensionless},Sep{dimensionless},Oct{dimensionless},Nov{dimensionless},Dec{dimensionless}
 Site:GroundReflectance:Snow,  0.20,  0.20,  0.20,  0.20,  0.20,  0.20,  0.20,  0.20,  0.20,  0.20,  0.20,  0.20
! <Site:GroundReflectance:Snow:Daylighting>,Jan{dimensionless},Feb{dimensionless},Mar{dimensionless},Apr{dimensionless},May{dimensionless},Jun{dimensionless},Jul{dimensionless},Aug{dimensionless},Sep{dimensionless},Oct{dimensionless},Nov{dimensionless},Dec{dimensionless}
 Site:GroundReflectance:Snow:Daylighting,  0.20,  0.20,  0.20,  0.20,  0.20,  0.20,  0.20,  0.20,  0.20,  0.20,  0.20,  0.20
! <Environment:Weather Station>,Wind Sensor Height Above Ground {m},Wind Speed Profile Exponent {},Wind Speed Profile Boundary Layer Thickness {m},Air Temperature Sensor Height Above Ground {m},Wind Speed Modifier Coefficient-Internal,Temperature Modifier Coefficient-Internal
Environment:Weather Station,10.000,0.140,270.000,1.500,1.586,9.750E-003
! <Site:Location>, Location Name, Latitude {N+/S- Deg}, Longitude {E+/W- Deg},  Time Zone Number {GMT+/-}, Elevation {m},  Standard Pressure at Elevation {Pa}, Standard RhoAir at Elevation
Site:Location,Kodiak AK USA customized weather file WMO#=703500,57.75,-152.49,-9.00,34.00,100917,1.1995
! <Site Water Mains Temperature Information>,Calculation Method{},Water Mains Temperature Schedule Name{},Annual Average Outdoor Air Temperature{C},Maximum Difference In Monthly Average Outdoor Air Temperatures{deltaC},Fixed Default Water Mains Temperature{C}
Site Water Mains Temperature Information,Correlation,NA,-1.53,36.20,NA
! <Building Information>, Building Name,North Axis {deg},Terrain,  Loads Convergence Tolerance Value,Temperature Convergence Tolerance Value,  Solar Distribution,Maximum Number of Warmup Days,Minimum Number of Warmup Days
 Building Information,90.1-2010|SmallOffice,0.000,City,4.00000E-002,0.20000,FullInteriorAndExterior,25,6
! <Inside Convection Algorithm>, Algorithm {Simple | TARP | CeilingDiffuser | AdaptiveConvectionAlgorithm}
Inside Convection Algorithm,TARP
! <Outside Convection Algorithm>, Algorithm {SimpleCombined | TARP | MoWitt | DOE-2 | AdaptiveConvectionAlgorithm}
Outside Convection Algorithm,TARP
! <Sky Radiance Distribution>, Value {Anisotropic}
Sky Radiance Distribution,Anisotropic
! <Zone Air Solution Algorithm>, Value {ThirdOrderBackwardDifference | AnalyticalSolution | EulerMethod}
 Zone Air Solution Algorithm, ThirdOrderBackwardDifference
! <Zone Air Carbon Dioxide Balance Simulation>, Simulation {Yes/No}, Carbon Dioxide Concentration
 Zone Air Carbon Dioxide Balance Simulation, No,N/A
! <Zone Air Generic Contaminant Balance Simulation>, Simulation {Yes/No}, Generic Contaminant Concentration
 Zone Air Generic Contaminant Balance Simulation, No,N/A
! <Zone Air Mass Flow Balance Simulation>, Enforce Mass Balance, Adjust Zone Mixing and Return {AdjustMixingOnly | AdjustReturnOnly | AdjustMixingThenReturn | AdjustReturnThenMixing | None}, Adjust Zone Infiltration {AddInfiltration | AdjustInfiltration | None}, Infiltration Zones {MixingSourceZonesOnly | AllZones}
 Zone Air Mass Flow Balance Simulation, No,N/A,N/A,N/A
! <HVACSystemRootFindingAlgorithm>, Value {RegulaFalsi | Bisection | BisectionThenRegulaFalsi | RegulaFalsiThenBisection}
 HVACSystemRootFindingAlgorithm, RegulaFalsi
! <Environment:Site Atmospheric Variation>,Wind Speed Profile Exponent {},Wind Speed Profile Boundary Layer Thickness {m},Air Temperature Gradient Coefficient {K/m}
Environment:Site Atmospheric Variation,0.330,460.000,6.500000E-003
! <Surface Geometry>,Starting Corner,Vertex Input Direction,Coordinate System,Daylight Reference Point Coordinate System,Rectangular (Simple) Surface Coordinate System
 Surface Geometry,UpperLeftCorner,Counterclockwise,RelativeCoordinateSystem,RelativeCoordinateSystem,RelativeToZoneOrigin
! <Surface Heat Transfer Algorithm>, Value {CTF - ConductionTransferFunction | EMPD - MoisturePenetrationDepthConductionTransferFunction | CondFD - ConductionFiniteDifference | HAMT - CombinedHeatAndMoistureFiniteElement} - Description,Inside Surface Max Temperature Limit{C}, Surface Convection Coefficient Lower Limit {W/m2-K}, Surface Convection Coefficient Upper Limit {W/m2-K}
Surface Heat Transfer Algorithm, CTF - ConductionTransferFunction,200,0.10,1000.0
! <Shading Summary>, Number of Fixed Detached Shades, Number of Building Detached Shades, Number of Attached Shades
 Shading Summary,0,0,0
! <Zone Summary>, Number of Zones, Number of Zone Surfaces, Number of SubSurfaces
 Zone Summary,9,66,12
! <Zone Information>,Zone Name,North Axis {deg},Origin X-Coordinate {m},Origin Y-Coordinate {m},Origin Z-Coordinate {m},Centroid X-Coordinate {m},Centroid Y-Coordinate {m},Centroid Z-Coordinate {m},Type,Zone Multiplier,Zone List Multiplier,Minimum X {m},Maximum X {m},Minimum Y {m},Maximum Y {m},Minimum Z {m},Maximum Z {m},Ceiling Height {m},Volume {m3},Zone Inside Convection Algorithm {Simple-Detailed-CeilingDiffuser-TrombeWall},Zone Outside Convection Algorithm {Simple-Detailed-Tarp-MoWitt-DOE-2-BLAST}, Floor Area {m2},Exterior Gross Wall Area {m2},Exterior Net Wall Area {m2},Exterior Window Area {m2}, Number of Surfaces, Number of SubSurfaces, Number of Shading SubSurfaces,  Part of Total Building Area
 Zone Information, ZONE OFFICE WHOLEBUILDING - SM OFFICE 2 A  - STORY GROUND,0.0,-14.23,-12.54,0.00,-1.40E-014,-10.25,3.05,1,1,1,-14.23,14.23,-12.54,-7.96,0.00,6.10,6.10,793.35,TARP,TARP,130.14,173.52,164.85,8.68,6,1,0,Yes
 Zone Information, ZONE OFFICE WHOLEBUILDING - SM OFFICE 2 A END_A - STORY GROUND,0.0,-18.80,-12.54,0.00,-16.52,-10.25,3.05,1,1,1,-18.80,-14.23,-12.54,-7.96,0.00,6.10,6.10,127.43,TARP,TARP,20.90,55.74,52.95,2.79,6,2,0,Yes
 Zone Information, ZONE OFFICE WHOLEBUILDING - SM OFFICE 2 A END_B - STORY GROUND,0.0,14.23,-12.54,0.00,16.52,-10.25,3.05,1,1,1,14.23,18.80,-12.54,-7.96,0.00,6.10,6.10,127.43,TARP,TARP,20.90,55.74,52.95,2.79,6,2,0,Yes
 Zone Information, ZONE OFFICE WHOLEBUILDING - SM OFFICE 2 B  - STORY GROUND,0.0,-14.23,-7.96,0.00,-1.42E-014,-2.16E-014,3.05,1,1,1,-14.23,14.23,-7.96,7.96,0.00,6.10,6.10,2764.02,TARP,TARP,453.42,0.00,0.00,0.00,6,0,0,Yes
 Zone Information, ZONE OFFICE WHOLEBUILDING - SM OFFICE 2 B END_A - STORY GROUND,0.0,-18.80,-7.96,0.00,-16.52,-2.16E-014,3.05,1,1,1,-18.80,-14.23,-7.96,7.96,0.00,6.10,6.10,443.95,TARP,TARP,72.83,97.10,92.25,4.86,6,1,0,Yes
 Zone Information, ZONE OFFICE WHOLEBUILDING - SM OFFICE 2 B END_B - STORY GROUND,0.0,14.23,-7.96,0.00,16.52,-2.20E-014,3.05,1,1,1,14.23,18.80,-7.96,7.96,0.00,6.10,6.10,443.95,TARP,TARP,72.83,97.10,92.25,4.86,6,1,0,Yes
 Zone Information, ZONE OFFICE WHOLEBUILDING - SM OFFICE 2 C  - STORY GROUND,0.0,-14.23,7.96,0.00,-1.40E-014,10.25,3.05,1,1,1,-14.23,14.23,7.96,12.54,0.00,6.10,6.10,793.35,TARP,TARP,130.14,173.52,164.85,8.68,6,1,0,Yes
 Zone Information, ZONE OFFICE WHOLEBUILDING - SM OFFICE 2 C END_A - STORY GROUND,0.0,-18.80,7.96,0.00,-16.52,10.25,3.05,1,1,1,-18.80,-14.23,7.96,12.54,0.00,6.10,6.10,127.43,TARP,TARP,20.90,55.74,52.95,2.79,6,2,0,Yes
 Zone Information, ZONE OFFICE WHOLEBUILDING - SM OFFICE 2 C END_B - STORY GROUND,0.0,14.23,7.96,0.00,16.52,10.25,3.05,1,1,1,14.23,18.80,7.96,12.54,0.00,6.10,6.10,127.43,TARP,TARP,20.90,55.74,52.95,2.79,6,2,0,Yes
! <Zone Internal Gains Nominal>,Zone Name, Floor Area {m2},# Occupants,Area per Occupant {m2/person},Occupant per Area {person/m2},Interior Lighting {W/m2},Electric Load {W/m2},Gas Load {W/m2},Other Load {W/m2},Hot Water Eq {W/m2},Steam Equipment {W/m2},Sum Loads per Area {W/m2},Outdoor Controlled Baseboard Heat
 Zone Internal Gains Nominal, ZONE OFFICE WHOLEBUILDING - SM OFFICE 2 A  - STORY GROUND,130.14,7.8,16.590,6.028E-002,9.688,6.781,0.000,0.000,0.000,0.000,16.469,No
 Zone Internal Gains Nominal, ZONE OFFICE WHOLEBUILDING - SM OFFICE 2 A END_A - STORY GROUND,20.90,1.3,16.590,6.028E-002,9.688,6.781,0.000,0.000,0.000,0.000,16.469,No
 Zone Internal Gains Nominal, ZONE OFFICE WHOLEBUILDING - SM OFFICE 2 A END_B - STORY GROUND,20.90,1.3,16.590,6.028E-002,9.688,6.781,0.000,0.000,0.000,0.000,16.469,No
 Zone Internal Gains Nominal, ZONE OFFICE WHOLEBUILDING - SM OFFICE 2 B  - STORY GROUND,453.42,27.3,16.590,6.028E-002,9.688,6.781,0.000,0.000,0.000,0.000,16.469,No
 Zone Internal Gains Nominal, ZONE OFFICE WHOLEBUILDING - SM OFFICE 2 B END_A - STORY GROUND,72.83,4.4,16.590,6.028E-002,9.688,6.781,0.000,0.000,0.000,0.000,16.469,No
 Zone Internal Gains Nominal, ZONE OFFICE WHOLEBUILDING - SM OFFICE 2 B END_B - STORY GROUND,72.83,4.4,16.590,6.028E-002,9.688,6.781,0.000,0.000,0.000,0.000,16.469,No
 Zone Internal Gains Nominal, ZONE OFFICE WHOLEBUILDING - SM OFFICE 2 C  - STORY GROUND,130.14,7.8,16.590,6.028E-002,9.688,6.781,0.000,0.000,0.000,0.000,16.469,No
 Zone Internal Gains Nominal, ZONE OFFICE WHOLEBUILDING - SM OFFICE 2 C END_A - STORY GROUND,20.90,1.3,16.590,6.028E-002,9.688,6.781,0.000,0.000,0.000,0.000,16.469,No
 Zone Internal Gains Nominal, ZONE OFFICE WHOLEBUILDING - SM OFFICE 2 C END_B - STORY GROUND,20.90,1.3,16.590,6.028E-002,9.688,6.781,0.000,0.000,0.000,0.000,16.469,No
! <People Internal Gains Nominal>,Name,Schedule Name,Zone Name,Zone Floor Area {m2},# Zone Occupants,Number of People {},People/Floor Area {person/m2},Floor Area per person {m2/person},Fraction Radiant,Fraction Convected,Sensible Fraction Calculation,Activity level,ASHRAE 55 Warnings,Carbon Dioxide Generation Rate,Nominal Minimum Number of People,Nominal Maximum Number of People
 People Internal Gains Nominal, OFFICE WHOLEBUILDING - SM OFFICE 2 A END_A - STORY GROUND OFFICE WHOLEBUILDING - SM OFFICE 2 PEOPLE,OFFICESMALL BLDG_OCC_SCH,ZONE OFFICE WHOLEBUILDING - SM OFFICE 2 A END_A - STORY GROUND,20.90,1.3,1.3,6.028E-002,16.590,0.300,0.700,AutoCalculate,OFFICESMALL ACTIVITY_SCH,No,3.8200E-008,0,1
 People Internal Gains Nominal, OFFICE WHOLEBUILDING - SM OFFICE 2 C END_A - STORY GROUND OFFICE WHOLEBUILDING - SM OFFICE 2 PEOPLE,OFFICESMALL BLDG_OCC_SCH,ZONE OFFICE WHOLEBUILDING - SM OFFICE 2 C END_A - STORY GROUND,20.90,1.3,1.3,6.028E-002,16.590,0.300,0.700,AutoCalculate,OFFICESMALL ACTIVITY_SCH,No,3.8200E-008,0,1
 People Internal Gains Nominal, OFFICE WHOLEBUILDING - SM OFFICE 2 A  - STORY GROUND OFFICE WHOLEBUILDING - SM OFFICE 2 PEOPLE,OFFICESMALL BLDG_OCC_SCH,ZONE OFFICE WHOLEBUILDING - SM OFFICE 2 A  - STORY GROUND,130.14,7.8,7.8,6.028E-002,16.590,0.300,0.700,AutoCalculate,OFFICESMALL ACTIVITY_SCH,No,3.8200E-008,0,8
 People Internal Gains Nominal, OFFICE WHOLEBUILDING - SM OFFICE 2 B END_A - STORY GROUND OFFICE WHOLEBUILDING - SM OFFICE 2 PEOPLE,OFFICESMALL BLDG_OCC_SCH,ZONE OFFICE WHOLEBUILDING - SM OFFICE 2 B END_A - STORY GROUND,72.83,4.4,4.4,6.028E-002,16.590,0.300,0.700,AutoCalculate,OFFICESMALL ACTIVITY_SCH,No,3.8200E-008,0,4
 People Internal Gains Nominal, OFFICE WHOLEBUILDING - SM OFFICE 2 B  - STORY GROUND OFFICE WHOLEBUILDING - SM OFFICE 2 PEOPLE,OFFICESMALL BLDG_OCC_SCH,ZONE OFFICE WHOLEBUILDING - SM OFFICE 2 B  - STORY GROUND,453.42,27.3,27.3,6.028E-002,16.590,0.300,0.700,AutoCalculate,OFFICESMALL ACTIVITY_SCH,No,3.8200E-008,0,27
 People Internal Gains Nominal, OFFICE WHOLEBUILDING - SM OFFICE 2 C  - STORY GROUND OFFICE WHOLEBUILDING - SM OFFICE 2 PEOPLE,OFFICESMALL BLDG_OCC_SCH,ZONE OFFICE WHOLEBUILDING - SM OFFICE 2 C  - STORY GROUND,130.14,7.8,7.8,6.028E-002,16.590,0.300,0.700,AutoCalculate,OFFICESMALL ACTIVITY_SCH,No,3.8200E-008,0,8
 People Internal Gains Nominal, OFFICE WHOLEBUILDING - SM OFFICE 2 B END_B - STORY GROUND OFFICE WHOLEBUILDING - SM OFFICE 2 PEOPLE,OFFICESMALL BLDG_OCC_SCH,ZONE OFFICE WHOLEBUILDING - SM OFFICE 2 B END_B - STORY GROUND,72.83,4.4,4.4,6.028E-002,16.590,0.300,0.700,AutoCalculate,OFFICESMALL ACTIVITY_SCH,No,3.8200E-008,0,4
 People Internal Gains Nominal, OFFICE WHOLEBUILDING - SM OFFICE 2 A END_B - STORY GROUND OFFICE WHOLEBUILDING - SM OFFICE 2 PEOPLE,OFFICESMALL BLDG_OCC_SCH,ZONE OFFICE WHOLEBUILDING - SM OFFICE 2 A END_B - STORY GROUND,20.90,1.3,1.3,6.028E-002,16.590,0.300,0.700,AutoCalculate,OFFICESMALL ACTIVITY_SCH,No,3.8200E-008,0,1
 People Internal Gains Nominal, OFFICE WHOLEBUILDING - SM OFFICE 2 C END_B - STORY GROUND OFFICE WHOLEBUILDING - SM OFFICE 2 PEOPLE,OFFICESMALL BLDG_OCC_SCH,ZONE OFFICE WHOLEBUILDING - SM OFFICE 2 C END_B - STORY GROUND,20.90,1.3,1.3,6.028E-002,16.590,0.300,0.700,AutoCalculate,OFFICESMALL ACTIVITY_SCH,No,3.8200E-008,0,1
! <Lights Internal Gains Nominal>,Name,Schedule Name,Zone Name,Zone Floor Area {m2},# Zone Occupants,Lighting Level {W},Lights/Floor Area {W/m2},Lights per person {W/person},Fraction Return Air,Fraction Radiant,Fraction Short Wave,Fraction Convected,Fraction Replaceable,End-Use Category,Nominal Minimum Lighting Level {W},Nominal Maximum Lighting Level {W}
 Lights Internal Gains Nominal, OFFICE WHOLEBUILDING - SM OFFICE 2 A END_A - STORY GROUND OFFICE WHOLEBUILDING - SM OFFICE 2 LIGHTS,OFFICESMALL BLDG_LIGHT_SCH_2010,ZONE OFFICE WHOLEBUILDING - SM OFFICE 2 A END_A - STORY GROUND,20.90,1.3,202.500,9.688,160.714,0.000,0.700,0.200,0.100,1.000,General,0.000,202.500
 Lights Internal Gains Nominal, OFFICE WHOLEBUILDING - SM OFFICE 2 C END_A - STORY GROUND OFFICE WHOLEBUILDING - SM OFFICE 2 LIGHTS,OFFICESMALL BLDG_LIGHT_SCH_2010,ZONE OFFICE WHOLEBUILDING - SM OFFICE 2 C END_A - STORY GROUND,20.90,1.3,202.500,9.688,160.714,0.000,0.700,0.200,0.100,1.000,General,0.000,202.500
 Lights Internal Gains Nominal, OFFICE WHOLEBUILDING - SM OFFICE 2 A  - STORY GROUND OFFICE WHOLEBUILDING - SM OFFICE 2 LIGHTS,OFFICESMALL BLDG_LIGHT_SCH_2010,ZONE OFFICE WHOLEBUILDING - SM OFFICE 2 A  - STORY GROUND,130.14,7.8,1260.760,9.688,160.714,0.000,0.700,0.200,0.100,1.000,General,0.000,1260.760
 Lights Internal Gains Nominal, OFFICE WHOLEBUILDING - SM OFFICE 2 B END_A - STORY GROUND OFFICE WHOLEBUILDING - SM OFFICE 2 LIGHTS,OFFICESMALL BLDG_LIGHT_SCH_2010,ZONE OFFICE WHOLEBUILDING - SM OFFICE 2 B END_A - STORY GROUND,72.83,4.4,705.507,9.688,160.714,0.000,0.700,0.200,0.100,1.000,General,0.000,705.507
 Lights Internal Gains Nominal, OFFICE WHOLEBUILDING - SM OFFICE 2 B  - STORY GROUND OFFICE WHOLEBUILDING - SM OFFICE 2 LIGHTS,OFFICESMALL BLDG_LIGHT_SCH_2010,ZONE OFFICE WHOLEBUILDING - SM OFFICE 2 B  - STORY GROUND,453.42,27.3,4392.467,9.688,160.714,0.000,0.700,0.200,0.100,1.000,General,0.000,4392.467
 Lights Internal Gains Nominal, OFFICE WHOLEBUILDING - SM OFFICE 2 C  - STORY GROUND OFFICE WHOLEBUILDING - SM OFFICE 2 LIGHTS,OFFICESMALL BLDG_LIGHT_SCH_2010,ZONE OFFICE WHOLEBUILDING - SM OFFICE 2 C  - STORY GROUND,130.14,7.8,1260.760,9.688,160.714,0.000,0.700,0.200,0.100,1.000,General,0.000,1260.760
 Lights Internal Gains Nominal, OFFICE WHOLEBUILDING - SM OFFICE 2 B END_B - STORY GROUND OFFICE WHOLEBUILDING - SM OFFICE 2 LIGHTS,OFFICESMALL BLDG_LIGHT_SCH_2010,ZONE OFFICE WHOLEBUILDING - SM OFFICE 2 B END_B - STORY GROUND,72.83,4.4,705.507,9.688,160.714,0.000,0.700,0.200,0.100,1.000,General,0.000,705.507
 Lights Internal Gains Nominal, OFFICE WHOLEBUILDING - SM OFFICE 2 A END_B - STORY GROUND OFFICE WHOLEBUILDING - SM OFFICE 2 LIGHTS,OFFICESMALL BLDG_LIGHT_SCH_2010,ZONE OFFICE WHOLEBUILDING - SM OFFICE 2 A END_B - STORY GROUND,20.90,1.3,202.500,9.688,160.714,0.000,0.700,0.200,0.100,1.000,General,0.000,202.500
 Lights Internal Gains Nominal, OFFICE WHOLEBUILDING - SM OFFICE 2 C END_B - STORY GROUND OFFICE WHOLEBUILDING - SM OFFICE 2 LIGHTS,OFFICESMALL BLDG_LIGHT_SCH_2010,ZONE OFFICE WHOLEBUILDING - SM OFFICE 2 C END_B - STORY GROUND,20.90,1.3,202.500,9.688,160.714,0.000,0.700,0.200,0.100,1.000,General,0.000,202.500
! <ElectricEquipment Internal Gains Nominal>,Name,Schedule Name,Zone Name,Zone Floor Area {m2},# Zone Occupants,Equipment Level {W},Equipment/Floor Area {W/m2},Equipment per person {W/person},Fraction Latent,Fraction Radiant,Fraction Lost,Fraction Convected,End-Use SubCategory,Nominal Minimum Equipment Level {W},Nominal Maximum Equipment Level {W}
 ElectricEquipment Internal Gains Nominal, OFFICE WHOLEBUILDING - SM OFFICE 2 A END_A - STORY GROUND OFFICE WHOLEBUILDING - SM OFFICE 2 ELEC EQUIP,OFFICESMALL BLDG_EQUIP_SCH_2010,ZONE OFFICE WHOLEBUILDING - SM OFFICE 2 A END_A - STORY GROUND,20.90,1.3,141.750,6.781,112.500,0.000,0.500,0.000,0.500,General,0.000,141.750
 ElectricEquipment Internal Gains Nominal, OFFICE WHOLEBUILDING - SM OFFICE 2 C END_A - STORY GROUND OFFICE WHOLEBUILDING - SM OFFICE 2 ELEC EQUIP,OFFICESMALL BLDG_EQUIP_SCH_2010,ZONE OFFICE WHOLEBUILDING - SM OFFICE 2 C END_A - STORY GROUND,20.90,1.3,141.750,6.781,112.500,0.000,0.500,0.000,0.500,General,0.000,141.750
 ElectricEquipment Internal Gains Nominal, OFFICE WHOLEBUILDING - SM OFFICE 2 A  - STORY GROUND OFFICE WHOLEBUILDING - SM OFFICE 2 ELEC EQUIP,OFFICESMALL BLDG_EQUIP_SCH_2010,ZONE OFFICE WHOLEBUILDING - SM OFFICE 2 A  - STORY GROUND,130.14,7.8,882.532,6.781,112.500,0.000,0.500,0.000,0.500,General,0.000,882.532
 ElectricEquipment Internal Gains Nominal, OFFICE WHOLEBUILDING - SM OFFICE 2 B END_A - STORY GROUND OFFICE WHOLEBUILDING - SM OFFICE 2 ELEC EQUIP,OFFICESMALL BLDG_EQUIP_SCH_2010,ZONE OFFICE WHOLEBUILDING - SM OFFICE 2 B END_A - STORY GROUND,72.83,4.4,493.855,6.781,112.500,0.000,0.500,0.000,0.500,General,0.000,493.855
 ElectricEquipment Internal Gains Nominal, OFFICE WHOLEBUILDING - SM OFFICE 2 B  - STORY GROUND OFFICE WHOLEBUILDING - SM OFFICE 2 ELEC EQUIP,OFFICESMALL BLDG_EQUIP_SCH_2010,ZONE OFFICE WHOLEBUILDING - SM OFFICE 2 B  - STORY GROUND,453.42,27.3,3074.727,6.781,112.500,0.000,0.500,0.000,0.500,General,0.000,3074.727
 ElectricEquipment Internal Gains Nominal, OFFICE WHOLEBUILDING - SM OFFICE 2 C  - STORY GROUND OFFICE WHOLEBUILDING - SM OFFICE 2 ELEC EQUIP,OFFICESMALL BLDG_EQUIP_SCH_2010,ZONE OFFICE WHOLEBUILDING - SM OFFICE 2 C  - STORY GROUND,130.14,7.8,882.532,6.781,112.500,0.000,0.500,0.000,0.500,General,0.000,882.532
 ElectricEquipment Internal Gains Nominal, OFFICE WHOLEBUILDING - SM OFFICE 2 B END_B - STORY GROUND OFFICE WHOLEBUILDING - SM OFFICE 2 ELEC EQUIP,OFFICESMALL BLDG_EQUIP_SCH_2010,ZONE OFFICE WHOLEBUILDING - SM OFFICE 2 B END_B - STORY GROUND,72.83,4.4,493.855,6.781,112.500,0.000,0.500,0.000,0.500,General,0.000,493.855
 ElectricEquipment Internal Gains Nominal, OFFICE WHOLEBUILDING - SM OFFICE 2 A END_B - STORY GROUND OFFICE WHOLEBUILDING - SM OFFICE 2 ELEC EQUIP,OFFICESMALL BLDG_EQUIP_SCH_2010,ZONE OFFICE WHOLEBUILDING - SM OFFICE 2 A END_B - STORY GROUND,20.90,1.3,141.750,6.781,112.500,0.000,0.500,0.000,0.500,General,0.000,141.750
 ElectricEquipment Internal Gains Nominal, OFFICE WHOLEBUILDING - SM OFFICE 2 C END_B - STORY GROUND OFFICE WHOLEBUILDING - SM OFFICE 2 ELEC EQUIP,OFFICESMALL BLDG_EQUIP_SCH_2010,ZONE OFFICE WHOLEBUILDING - SM OFFICE 2 C END_B - STORY GROUND,20.90,1.3,141.750,6.781,112.500,0.000,0.500,0.000,0.500,General,0.000,141.750
! <Shadowing/Sun Position Calculations Annual Simulations>, Shading Calculation Method, Shading Calculation Update Frequency Method, Shading Calculation Update Frequency {days}, Maximum Figures in Shadow Overlap Calculations {}, Polygon Clipping Algorithm, Pixel Counting Resolution, Sky Diffuse Modeling Algorithm, Output External Shading Calculation Results, Disable Self-Shading Within Shading Zone Groups, Disable Self-Shading From Shading Zone Groups to Other Zones
Shadowing/Sun Position Calculations Annual Simulations,PolygonClipping,Periodic,30,15000,SutherlandHodgman,512,SimpleSkyDiffuseModeling,No,No,No
! <Water Heater Information>,Type,Name,Volume {m3},Maximum Capacity {W},Standard Rated Recovery Efficiency, Standard Rated Energy Factor
! <ZoneInfiltration Airflow Stats Nominal>,Name,Schedule Name,Zone Name, Zone Floor Area {m2}, # Zone Occupants,Design Volume Flow Rate {m3/s},Volume Flow Rate/Floor Area {m3/s-m2},Volume Flow Rate/Exterior Surface Area {m3/s-m2},ACH - Air Changes per Hour,Equation A - Constant Term Coefficient {},Equation B - Temperature Term Coefficient {1/C},Equation C - Velocity Term Coefficient {s/m}, Equation D - Velocity Squared Term Coefficient {s2/m2}
 ZoneInfiltration Airflow Stats Nominal, OFFICE WHOLEBUILDING - SM OFFICE 2 A  - STORY GROUND INFILTRATION,ALWAYS ON DISCRETE,ZONE OFFICE WHOLEBUILDING - SM OFFICE 2 A  - STORY GROUND,130.14,7.8,9.883E-002,7.594E-004,3.255E-004,0.448,0.000,0.000,0.224,0.000
 ZoneInfiltration Airflow Stats Nominal, OFFICE WHOLEBUILDING - SM OFFICE 2 A END_A - STORY GROUND INFILTRATION,ALWAYS ON DISCRETE,ZONE OFFICE WHOLEBUILDING - SM OFFICE 2 A END_A - STORY GROUND,20.90,1.3,3.175E-002,1.519E-003,4.142E-004,0.897,0.000,0.000,0.224,0.000
 ZoneInfiltration Airflow Stats Nominal, OFFICE WHOLEBUILDING - SM OFFICE 2 A END_B - STORY GROUND INFILTRATION,ALWAYS ON DISCRETE,ZONE OFFICE WHOLEBUILDING - SM OFFICE 2 A END_B - STORY GROUND,20.90,1.3,3.175E-002,1.519E-003,4.142E-004,0.897,0.000,0.000,0.224,0.000
 ZoneInfiltration Airflow Stats Nominal, OFFICE WHOLEBUILDING - SM OFFICE 2 B END_A - STORY GROUND INFILTRATION,ALWAYS ON DISCRETE,ZONE OFFICE WHOLEBUILDING - SM OFFICE 2 B END_A - STORY GROUND,72.83,4.4,5.531E-002,7.594E-004,3.255E-004,0.448,0.000,0.000,0.224,0.000
 ZoneInfiltration Airflow Stats Nominal, OFFICE WHOLEBUILDING - SM OFFICE 2 B END_B - STORY GROUND INFILTRATION,ALWAYS ON DISCRETE,ZONE OFFICE WHOLEBUILDING - SM OFFICE 2 B END_B - STORY GROUND,72.83,4.4,5.531E-002,7.594E-004,3.255E-004,0.448,0.000,0.000,0.224,0.000
 ZoneInfiltration Airflow Stats Nominal, OFFICE WHOLEBUILDING - SM OFFICE 2 C  - STORY GROUND INFILTRATION,ALWAYS ON DISCRETE,ZONE OFFICE WHOLEBUILDING - SM OFFICE 2 C  - STORY GROUND,130.14,7.8,9.883E-002,7.594E-004,3.255E-004,0.448,0.000,0.000,0.224,0.000
 ZoneInfiltration Airflow Stats Nominal, OFFICE WHOLEBUILDING - SM OFFICE 2 C END_A - STORY GROUND INFILTRATION,ALWAYS ON DISCRETE,ZONE OFFICE WHOLEBUILDING - SM OFFICE 2 C END_A - STORY GROUND,20.90,1.3,3.175E-002,1.519E-003,4.142E-004,0.897,0.000,0.000,0.224,0.000
 ZoneInfiltration Airflow Stats Nominal, OFFICE WHOLEBUILDING - SM OFFICE 2 C END_B - STORY GROUND INFILTRATION,ALWAYS ON DISCRETE,ZONE OFFICE WHOLEBUILDING - SM OFFICE 2 C END_B - STORY GROUND,20.90,1.3,3.175E-002,1.519E-003,4.142E-004,0.897,0.000,0.000,0.224,0.000
! <AirFlow Model>, Simple
 AirFlow Model, Simple
! <RoomAir Model>, Zone Name, Mixing/Mundt/UCSDDV/UCSDCV/UCSDUFI/UCSDUFE/User Defined
RoomAir Model,ZONE OFFICE WHOLEBUILDING - SM OFFICE 2 A  - STORY GROUND,Mixing/Well-Stirred
RoomAir Model,ZONE OFFICE WHOLEBUILDING - SM OFFICE 2 A END_A - STORY GROUND,Mixing/Well-Stirred
RoomAir Model,ZONE OFFICE WHOLEBUILDING - SM OFFICE 2 A END_B - STORY GROUND,Mixing/Well-Stirred
RoomAir Model,ZONE OFFICE WHOLEBUILDING - SM OFFICE 2 B  - STORY GROUND,Mixing/Well-Stirred
RoomAir Model,ZONE OFFICE WHOLEBUILDING - SM OFFICE 2 B END_A - STORY GROUND,Mixing/Well-Stirred
RoomAir Model,ZONE OFFICE WHOLEBUILDING - SM OFFICE 2 B END_B - STORY GROUND,Mixing/Well-Stirred
RoomAir Model,ZONE OFFICE WHOLEBUILDING - SM OFFICE 2 C  - STORY GROUND,Mixing/Well-Stirred
RoomAir Model,ZONE OFFICE WHOLEBUILDING - SM OFFICE 2 C END_A - STORY GROUND,Mixing/Well-Stirred
RoomAir Model,ZONE OFFICE WHOLEBUILDING - SM OFFICE 2 C END_B - STORY GROUND,Mixing/Well-Stirred
! <AirflowNetwork Model:Control>, No Multizone or Distribution/Multizone with Distribution/Multizone without Distribution/Multizone with Distribution only during Fan Operation
AirflowNetwork Model:Control,NoMultizoneOrDistribution
! <Zone Volume Capacitance Multiplier>, Sensible Heat Capacity Multiplier, Moisture Capacity Multiplier, Carbon Dioxide Capacity Multiplier, Generic Contaminant Capacity Multiplier
Zone Volume Capacitance Multiplier,   1.000 ,   1.000,   1.000,   1.000
! <Load Timesteps in Zone Design Calculation Averaging Window>, Value
 Load Timesteps in Zone Design Calculation Averaging Window,    6
! <Heating Sizing Factor Information>, Sizing Factor ID, Value
 Heating Sizing Factor Information, Global,   1.2500    
 Heating Sizing Factor Information, Zone ZONE OFFICE WHOLEBUILDING - SM OFFICE 2 A  - STORY GROUND,   1.2500    
 Heating Sizing Factor Information, Zone ZONE OFFICE WHOLEBUILDING - SM OFFICE 2 A END_A - STORY GROUND,   1.2500    
 Heating Sizing Factor Information, Zone ZONE OFFICE WHOLEBUILDING - SM OFFICE 2 A END_B - STORY GROUND,   1.2500    
 Heating Sizing Factor Information, Zone ZONE OFFICE WHOLEBUILDING - SM OFFICE 2 B  - STORY GROUND,   1.2500    
 Heating Sizing Factor Information, Zone ZONE OFFICE WHOLEBUILDING - SM OFFICE 2 B END_A - STORY GROUND,   1.2500    
 Heating Sizing Factor Information, Zone ZONE OFFICE WHOLEBUILDING - SM OFFICE 2 B END_B - STORY GROUND,   1.2500    
 Heating Sizing Factor Information, Zone ZONE OFFICE WHOLEBUILDING - SM OFFICE 2 C  - STORY GROUND,   1.2500    
 Heating Sizing Factor Information, Zone ZONE OFFICE WHOLEBUILDING - SM OFFICE 2 C END_A - STORY GROUND,   1.2500    
 Heating Sizing Factor Information, Zone ZONE OFFICE WHOLEBUILDING - SM OFFICE 2 C END_B - STORY GROUND,   1.2500    
! <Cooling Sizing Factor Information>, Sizing Factor ID, Value
 Cooling Sizing Factor Information, Global,   1.1500    
 Cooling Sizing Factor Information, Zone ZONE OFFICE WHOLEBUILDING - SM OFFICE 2 A  - STORY GROUND,   1.1500    
 Cooling Sizing Factor Information, Zone ZONE OFFICE WHOLEBUILDING - SM OFFICE 2 A END_A - STORY GROUND,   1.1500    
 Cooling Sizing Factor Information, Zone ZONE OFFICE WHOLEBUILDING - SM OFFICE 2 A END_B - STORY GROUND,   1.1500    
 Cooling Sizing Factor Information, Zone ZONE OFFICE WHOLEBUILDING - SM OFFICE 2 B  - STORY GROUND,   1.1500    
 Cooling Sizing Factor Information, Zone ZONE OFFICE WHOLEBUILDING - SM OFFICE 2 B END_A - STORY GROUND,   1.1500    
 Cooling Sizing Factor Information, Zone ZONE OFFICE WHOLEBUILDING - SM OFFICE 2 B END_B - STORY GROUND,   1.1500    
 Cooling Sizing Factor Information, Zone ZONE OFFICE WHOLEBUILDING - SM OFFICE 2 C  - STORY GROUND,   1.1500    
 Cooling Sizing Factor Information, Zone ZONE OFFICE WHOLEBUILDING - SM OFFICE 2 C END_A - STORY GROUND,   1.1500    
 Cooling Sizing Factor Information, Zone ZONE OFFICE WHOLEBUILDING - SM OFFICE 2 C END_B - STORY GROUND,   1.1500    
! <Zone Sizing Information>, Zone Name, Load Type, Calc Des Load {W}, User Des Load {W}, Calc Des Air Flow Rate {m3/s}, User Des Air Flow Rate {m3/s}, Design Day Name, Date/Time of Peak, Temperature at Peak {C}, Humidity Ratio at Peak {kgWater/kgDryAir}, Floor Area {m2}, # Occupants, Calc Outdoor Air Flow Rate {m3/s}, Calc DOAS Heat Addition Rate {W}
 Zone Sizing Information, ZONE OFFICE WHOLEBUILDING - SM OFFICE 2 A  - STORY GROUND, Cooling, 4630.64141, 5325.23762, 0.34042, 0.39148, KODIAK AUGUST .4% CONDNS DB=>MCWB, 8/21 15:10:00, 22.53700, 8.70757E-003, 130.14270, 7.84473, 5.61956E-002, 0.00000
 Zone Sizing Information, ZONE OFFICE WHOLEBUILDING - SM OFFICE 2 A  - STORY GROUND, Heating, 6099.09277, 7623.86596, 0.17258, 0.21573, KODIAK ANN HTG 99.6% CONDNS DB, 1/21 24:00:00, -12.80000, 1.24844E-003, 130.14270, 7.84473, 5.61956E-002, 0.00000
 Zone Sizing Information, ZONE OFFICE WHOLEBUILDING - SM OFFICE 2 A END_A - STORY GROUND, Cooling, 883.52766, 1016.05681, 6.49510E-002, 7.46936E-002, KODIAK AUGUST .4% CONDNS DB=>MCWB, 8/21 16:50:00, 21.80200, 8.70643E-003, 20.90318, 1.26000, 9.02599E-003, 0.00000
 Zone Sizing Information, ZONE OFFICE WHOLEBUILDING - SM OFFICE 2 A END_A - STORY GROUND, Heating, 1769.19401, 2211.49252, 5.00582E-002, 6.25728E-002, KODIAK ANN HTG 99.6% CONDNS DB, 1/21 24:00:00, -12.80000, 1.24844E-003, 20.90318, 1.26000, 9.02599E-003, 0.00000
 Zone Sizing Information, ZONE OFFICE WHOLEBUILDING - SM OFFICE 2 A END_B - STORY GROUND, Cooling, 883.24445, 1015.73112, 6.49294E-002, 7.46688E-002, KODIAK JULY .4% CONDNS DB=>MCWB, 7/21 15:10:00, 24.14500, 8.28485E-003, 20.90318, 1.26000, 9.02599E-003, 0.00000
 Zone Sizing Information, ZONE OFFICE WHOLEBUILDING - SM OFFICE 2 A END_B - STORY GROUND, Heating, 1768.68320, 2210.85400, 5.00438E-002, 6.25547E-002, KODIAK ANN HTG 99.6% CONDNS DB, 1/21 24:00:00, -12.80000, 1.24844E-003, 20.90318, 1.26000, 9.02599E-003, 0.00000
 Zone Sizing Information, ZONE OFFICE WHOLEBUILDING - SM OFFICE 2 B  - STORY GROUND, Cooling, 10904.00320, 12539.60368, 0.80160, 0.92185, KODIAK JULY .4% CONDNS DB=>MCWB, 7/21 15:30:00, 24.03500, 8.28468E-003, 453.41502, 27.33090, 0.19578, 0.00000
 Zone Sizing Information, ZONE OFFICE WHOLEBUILDING - SM OFFICE 2 B  - STORY GROUND, Heating, 5814.78350, 7268.47938, 0.16456, 0.20570, KODIAK ANN HTG 99.6% CONDNS DB, 1/21 24:00:00, -12.80000, 1.24844E-003, 453.41502, 27.33090, 0.19578, 0.00000
 Zone Sizing Information, ZONE OFFICE WHOLEBUILDING - SM OFFICE 2 B END_A - STORY GROUND, Cooling, 2539.80297, 2920.77341, 0.18671, 0.21472, KODIAK JULY .4% CONDNS DB=>MCWB, 7/21 18:10:00, 22.74250, 8.28268E-003, 72.82635, 4.38982, 3.14464E-002, 0.00000
 Zone Sizing Information, ZONE OFFICE WHOLEBUILDING - SM OFFICE 2 B END_A - STORY GROUND, Heating, 3470.94698, 4338.68372, 9.82165E-002, 0.12277, KODIAK ANN HTG 99.6% CONDNS DB, 1/21 24:00:00, -12.80000, 1.24844E-003, 72.82635, 4.38982, 3.14464E-002, 0.00000
 Zone Sizing Information, ZONE OFFICE WHOLEBUILDING - SM OFFICE 2 B END_B - STORY GROUND, Cooling, 2463.10276, 2832.56817, 0.18107, 0.20823, KODIAK JULY .4% CONDNS DB=>MCWB, 7/21 11:40:00, 23.30167, 8.28354E-003, 72.82635, 4.38982, 3.14464E-002, 0.00000
 Zone Sizing Information, ZONE OFFICE WHOLEBUILDING - SM OFFICE 2 B END_B - STORY GROUND, Heating, 3469.55539, 4336.94424, 9.81771E-002, 0.12272, KODIAK ANN HTG 99.6% CONDNS DB, 1/21 24:00:00, -12.80000, 1.24844E-003, 72.82635, 4.38982, 3.14464E-002, 0.00000
 Zone Sizing Information, ZONE OFFICE WHOLEBUILDING - SM OFFICE 2 C  - STORY GROUND, Cooling, 3324.07542, 3822.68673, 0.24436, 0.28102, KODIAK JULY .4% CONDNS DB=>MCWB, 7/21 15:10:00, 24.14500, 8.28485E-003, 130.14270, 7.84473, 5.61956E-002, 0.00000
 Zone Sizing Information, ZONE OFFICE WHOLEBUILDING - SM OFFICE 2 C  - STORY GROUND, Heating, 6101.28852, 7626.61065, 0.17265, 0.21581, KODIAK ANN HTG 99.6% CONDNS DB, 1/21 24:00:00, -12.80000, 1.24844E-003, 130.14270, 7.84473, 5.61956E-002, 0.00000
 Zone Sizing Information, ZONE OFFICE WHOLEBUILDING - SM OFFICE 2 C END_A - STORY GROUND, Cooling, 700.42738, 805.49148, 5.14901E-002, 5.92136E-002, KODIAK JULY .4% CONDNS DB=>MCWB, 7/21 18:00:00, 22.88000, 8.28289E-003, 20.90318, 1.26000, 9.02599E-003, 0.00000
 Zone Sizing Information, ZONE OFFICE WHOLEBUILDING - SM OFFICE 2 C END_A - STORY GROUND, Heating, 1769.70186, 2212.12733, 5.00726E-002, 6.25907E-002, KODIAK ANN HTG 99.6% CONDNS DB, 1/21 24:00:00, -12.80000, 1.24844E-003, 20.90318, 1.26000, 9.02599E-003, 0.00000
 Zone Sizing Information, ZONE OFFICE WHOLEBUILDING - SM OFFICE 2 C END_B - STORY GROUND, Cooling, 680.77434, 782.89049, 5.00453E-002, 5.75521E-002, KODIAK JULY .4% CONDNS DB=>MCWB, 7/21 11:50:00, 23.39333, 8.28368E-003, 20.90318, 1.26000, 9.02599E-003, 0.00000
 Zone Sizing Information, ZONE OFFICE WHOLEBUILDING - SM OFFICE 2 C END_B - STORY GROUND, Heating, 1769.19104, 2211.48880, 5.00581E-002, 6.25727E-002, KODIAK ANN HTG 99.6% CONDNS DB, 1/21 24:00:00, -12.80000, 1.24844E-003, 20.90318, 1.26000, 9.02599E-003, 0.00000
! <System Sizing Information>, System Name, Load Type, Peak Load Kind, User Design Capacity, Calc Des Air Flow Rate [m3/s], User Des Air Flow Rate [m3/s], Design Day Name, Date/Time of Peak
 System Sizing Information, ZONE OFFICE WHOLEBUILDING - SM OFFICE 2 A  - STORY GROUND PSZ-AC, Cooling, Sensible, 5200.38, 0.38678, 0.38678, KODIAK JULY .4% CONDNS DB=>MCWB, 7/21 05:00:00
 System Sizing Information, ZONE OFFICE WHOLEBUILDING - SM OFFICE 2 A  - STORY GROUND PSZ-AC, Heating, Sensible, 9809.37, 0.21573, 0.21573, KODIAK ANN HTG 99.6% CONDNS DB, 1/21 24:00:00
 System Sizing Information, ZONE OFFICE WHOLEBUILDING - SM OFFICE 2 A END_A - STORY GROUND PSZ-AC, Cooling, Sensible, 993.40, 7.44751E-002, 7.44751E-002, KODIAK JULY .4% CONDNS DB=>MCWB, 7/21 05:00:00
 System Sizing Information, ZONE OFFICE WHOLEBUILDING - SM OFFICE 2 A END_A - STORY GROUND PSZ-AC, Heating, Sensible, 2548.12, 6.25728E-002, 6.25728E-002, KODIAK ANN HTG 99.6% CONDNS DB, 1/21 24:00:00
 System Sizing Information, ZONE OFFICE WHOLEBUILDING - SM OFFICE 2 A END_B - STORY GROUND PSZ-AC, Cooling, Sensible, 1003.11, 7.46688E-002, 7.46688E-002, KODIAK JULY .4% CONDNS DB=>MCWB, 7/21 05:00:00
 System Sizing Information, ZONE OFFICE WHOLEBUILDING - SM OFFICE 2 A END_B - STORY GROUND PSZ-AC, Heating, Sensible, 2547.49, 6.25547E-002, 6.25547E-002, KODIAK ANN HTG 99.6% CONDNS DB, 1/21 24:00:00
 System Sizing Information, ZONE OFFICE WHOLEBUILDING - SM OFFICE 2 B  - STORY GROUND PSZ-AC, Cooling, Sensible, 12405.56, 0.92185, 0.92185, KODIAK JULY .4% CONDNS DB=>MCWB, 7/21 05:00:00
 System Sizing Information, ZONE OFFICE WHOLEBUILDING - SM OFFICE 2 B  - STORY GROUND PSZ-AC, Heating, Sensible, 15164.59, 0.20570, 0.20570, KODIAK ANN HTG 99.6% CONDNS DB, 1/21 24:00:00
 System Sizing Information, ZONE OFFICE WHOLEBUILDING - SM OFFICE 2 B END_A - STORY GROUND PSZ-AC, Cooling, Sensible, 2835.32, 0.21472, 0.21472, KODIAK JULY .4% CONDNS DB=>MCWB, 7/21 05:00:00
 System Sizing Information, ZONE OFFICE WHOLEBUILDING - SM OFFICE 2 B END_A - STORY GROUND PSZ-AC, Heating, Sensible, 5560.61, 0.12277, 0.12277, KODIAK ANN HTG 99.6% CONDNS DB, 1/21 24:00:00
 System Sizing Information, ZONE OFFICE WHOLEBUILDING - SM OFFICE 2 B END_B - STORY GROUND PSZ-AC, Cooling, Sensible, 2768.60, 0.20823, 0.20823, KODIAK JULY .4% CONDNS DB=>MCWB, 7/21 05:00:00
 System Sizing Information, ZONE OFFICE WHOLEBUILDING - SM OFFICE 2 B END_B - STORY GROUND PSZ-AC, Heating, Sensible, 5558.90, 0.12272, 0.12272, KODIAK ANN HTG 99.6% CONDNS DB, 1/21 24:00:00
 System Sizing Information, ZONE OFFICE WHOLEBUILDING - SM OFFICE 2 C  - STORY GROUND PSZ-AC, Cooling, Sensible, 3783.04, 0.28102, 0.28102, KODIAK JULY .4% CONDNS DB=>MCWB, 7/21 05:00:00
 System Sizing Information, ZONE OFFICE WHOLEBUILDING - SM OFFICE 2 C  - STORY GROUND PSZ-AC, Heating, Sensible, 9812.08, 0.21581, 0.21581, KODIAK ANN HTG 99.6% CONDNS DB, 1/21 24:00:00
 System Sizing Information, ZONE OFFICE WHOLEBUILDING - SM OFFICE 2 C END_A - STORY GROUND PSZ-AC, Cooling, Sensible, 782.82, 5.92136E-002, 5.92136E-002, KODIAK JULY .4% CONDNS DB=>MCWB, 7/21 05:00:00
 System Sizing Information, ZONE OFFICE WHOLEBUILDING - SM OFFICE 2 C END_A - STORY GROUND PSZ-AC, Heating, Sensible, 2548.75, 6.25907E-002, 6.25907E-002, KODIAK ANN HTG 99.6% CONDNS DB, 1/21 24:00:00
 System Sizing Information, ZONE OFFICE WHOLEBUILDING - SM OFFICE 2 C END_B - STORY GROUND PSZ-AC, Cooling, Sensible, 765.84, 5.75521E-002, 5.75521E-002, KODIAK JULY .4% CONDNS DB=>MCWB, 7/21 05:00:00
 System Sizing Information, ZONE OFFICE WHOLEBUILDING - SM OFFICE 2 C END_B - STORY GROUND PSZ-AC, Heating, Sensible, 2548.12, 6.25727E-002, 6.25727E-002, KODIAK ANN HTG 99.6% CONDNS DB, 1/21 24:00:00
! <Component Sizing Information>, Component Type, Component Name, Input Field Description, Value
 Component Sizing Information, AirTerminal:SingleDuct:ConstantVolume:NoReheat, ZONE OFFICE WHOLEBUILDING - SM OFFICE 2 A  - STORY GROUND PSZ-AC DIFFUSER, Design Size Maximum Air Flow Rate [m3/s], 0.39148
 Component Sizing Information, AirTerminal:SingleDuct:ConstantVolume:NoReheat, ZONE OFFICE WHOLEBUILDING - SM OFFICE 2 A END_A - STORY GROUND PSZ-AC DIFFUSER, Design Size Maximum Air Flow Rate [m3/s], 7.46936E-002
 Component Sizing Information, AirTerminal:SingleDuct:ConstantVolume:NoReheat, ZONE OFFICE WHOLEBUILDING - SM OFFICE 2 A END_B - STORY GROUND PSZ-AC DIFFUSER, Design Size Maximum Air Flow Rate [m3/s], 7.46688E-002
 Component Sizing Information, AirTerminal:SingleDuct:ConstantVolume:NoReheat, ZONE OFFICE WHOLEBUILDING - SM OFFICE 2 B  - STORY GROUND PSZ-AC DIFFUSER, Design Size Maximum Air Flow Rate [m3/s], 0.92185
 Component Sizing Information, AirTerminal:SingleDuct:ConstantVolume:NoReheat, ZONE OFFICE WHOLEBUILDING - SM OFFICE 2 B END_A - STORY GROUND PSZ-AC DIFFUSER, Design Size Maximum Air Flow Rate [m3/s], 0.21472
 Component Sizing Information, AirTerminal:SingleDuct:ConstantVolume:NoReheat, ZONE OFFICE WHOLEBUILDING - SM OFFICE 2 B END_B - STORY GROUND PSZ-AC DIFFUSER, Design Size Maximum Air Flow Rate [m3/s], 0.20823
 Component Sizing Information, AirTerminal:SingleDuct:ConstantVolume:NoReheat, ZONE OFFICE WHOLEBUILDING - SM OFFICE 2 C  - STORY GROUND PSZ-AC DIFFUSER, Design Size Maximum Air Flow Rate [m3/s], 0.28102
 Component Sizing Information, AirTerminal:SingleDuct:ConstantVolume:NoReheat, ZONE OFFICE WHOLEBUILDING - SM OFFICE 2 C END_A - STORY GROUND PSZ-AC DIFFUSER, Design Size Maximum Air Flow Rate [m3/s], 6.25907E-002
 Component Sizing Information, AirTerminal:SingleDuct:ConstantVolume:NoReheat, ZONE OFFICE WHOLEBUILDING - SM OFFICE 2 C END_B - STORY GROUND PSZ-AC DIFFUSER, Design Size Maximum Air Flow Rate [m3/s], 6.25727E-002
 Component Sizing Information, AirLoopHVAC, ZONE OFFICE WHOLEBUILDING - SM OFFICE 2 A  - STORY GROUND PSZ-AC, Sum of Air Terminal Maximum Heating Flow Rates [m3/s], 0.39148
 Component Sizing Information, AirLoopHVAC, ZONE OFFICE WHOLEBUILDING - SM OFFICE 2 A  - STORY GROUND PSZ-AC, Sum of Air Terminal Minimum Heating Flow Rates [m3/s], 0.39148
 Component Sizing Information, AirLoopHVAC, ZONE OFFICE WHOLEBUILDING - SM OFFICE 2 A  - STORY GROUND PSZ-AC, Sum of Air Terminal Maximum Flow Rates [m3/s], 0.39148
 Component Sizing Information, AirLoopHVAC, ZONE OFFICE WHOLEBUILDING - SM OFFICE 2 A  - STORY GROUND PSZ-AC, Adjusted Heating Design Air Flow Rate [m3/s], 0.39148
 Component Sizing Information, AirLoopHVAC, ZONE OFFICE WHOLEBUILDING - SM OFFICE 2 A  - STORY GROUND PSZ-AC, Adjusted Cooling Design Air Flow Rate [m3/s], 0.39148
 Component Sizing Information, AirLoopHVAC, ZONE OFFICE WHOLEBUILDING - SM OFFICE 2 A  - STORY GROUND PSZ-AC, Adjusted Main Design Air Flow Rate [m3/s], 0.39148
 Component Sizing Information, AirLoopHVAC, ZONE OFFICE WHOLEBUILDING - SM OFFICE 2 A  - STORY GROUND PSZ-AC, User Heating Air Flow Ratio [], 1.00000
 Component Sizing Information, AirLoopHVAC, ZONE OFFICE WHOLEBUILDING - SM OFFICE 2 A  - STORY GROUND PSZ-AC, Calculated Heating Air Flow Ratio [], 1.00000
 Component Sizing Information, AirLoopHVAC, ZONE OFFICE WHOLEBUILDING - SM OFFICE 2 A END_A - STORY GROUND PSZ-AC, Sum of Air Terminal Maximum Heating Flow Rates [m3/s], 7.46936E-002
 Component Sizing Information, AirLoopHVAC, ZONE OFFICE WHOLEBUILDING - SM OFFICE 2 A END_A - STORY GROUND PSZ-AC, Sum of Air Terminal Minimum Heating Flow Rates [m3/s], 7.46936E-002
 Component Sizing Information, AirLoopHVAC, ZONE OFFICE WHOLEBUILDING - SM OFFICE 2 A END_A - STORY GROUND PSZ-AC, Sum of Air Terminal Maximum Flow Rates [m3/s], 7.46936E-002
 Component Sizing Information, AirLoopHVAC, ZONE OFFICE WHOLEBUILDING - SM OFFICE 2 A END_A - STORY GROUND PSZ-AC, Adjusted Heating Design Air Flow Rate [m3/s], 7.46936E-002
 Component Sizing Information, AirLoopHVAC, ZONE OFFICE WHOLEBUILDING - SM OFFICE 2 A END_A - STORY GROUND PSZ-AC, Adjusted Cooling Design Air Flow Rate [m3/s], 7.46936E-002
 Component Sizing Information, AirLoopHVAC, ZONE OFFICE WHOLEBUILDING - SM OFFICE 2 A END_A - STORY GROUND PSZ-AC, Adjusted Main Design Air Flow Rate [m3/s], 7.46936E-002
 Component Sizing Information, AirLoopHVAC, ZONE OFFICE WHOLEBUILDING - SM OFFICE 2 A END_A - STORY GROUND PSZ-AC, User Heating Air Flow Ratio [], 1.00000
 Component Sizing Information, AirLoopHVAC, ZONE OFFICE WHOLEBUILDING - SM OFFICE 2 A END_A - STORY GROUND PSZ-AC, Calculated Heating Air Flow Ratio [], 1.00000
 Component Sizing Information, AirLoopHVAC, ZONE OFFICE WHOLEBUILDING - SM OFFICE 2 A END_B - STORY GROUND PSZ-AC, Sum of Air Terminal Maximum Heating Flow Rates [m3/s], 7.46688E-002
 Component Sizing Information, AirLoopHVAC, ZONE OFFICE WHOLEBUILDING - SM OFFICE 2 A END_B - STORY GROUND PSZ-AC, Sum of Air Terminal Minimum Heating Flow Rates [m3/s], 7.46688E-002
 Component Sizing Information, AirLoopHVAC, ZONE OFFICE WHOLEBUILDING - SM OFFICE 2 A END_B - STORY GROUND PSZ-AC, Sum of Air Terminal Maximum Flow Rates [m3/s], 7.46688E-002
 Component Sizing Information, AirLoopHVAC, ZONE OFFICE WHOLEBUILDING - SM OFFICE 2 A END_B - STORY GROUND PSZ-AC, Adjusted Heating Design Air Flow Rate [m3/s], 7.46688E-002
 Component Sizing Information, AirLoopHVAC, ZONE OFFICE WHOLEBUILDING - SM OFFICE 2 A END_B - STORY GROUND PSZ-AC, Adjusted Cooling Design Air Flow Rate [m3/s], 7.46688E-002
 Component Sizing Information, AirLoopHVAC, ZONE OFFICE WHOLEBUILDING - SM OFFICE 2 A END_B - STORY GROUND PSZ-AC, Adjusted Main Design Air Flow Rate [m3/s], 7.46688E-002
 Component Sizing Information, AirLoopHVAC, ZONE OFFICE WHOLEBUILDING - SM OFFICE 2 A END_B - STORY GROUND PSZ-AC, User Heating Air Flow Ratio [], 1.00000
 Component Sizing Information, AirLoopHVAC, ZONE OFFICE WHOLEBUILDING - SM OFFICE 2 A END_B - STORY GROUND PSZ-AC, Calculated Heating Air Flow Ratio [], 1.00000
 Component Sizing Information, AirLoopHVAC, ZONE OFFICE WHOLEBUILDING - SM OFFICE 2 B  - STORY GROUND PSZ-AC, Sum of Air Terminal Maximum Heating Flow Rates [m3/s], 0.92185
 Component Sizing Information, AirLoopHVAC, ZONE OFFICE WHOLEBUILDING - SM OFFICE 2 B  - STORY GROUND PSZ-AC, Sum of Air Terminal Minimum Heating Flow Rates [m3/s], 0.92185
 Component Sizing Information, AirLoopHVAC, ZONE OFFICE WHOLEBUILDING - SM OFFICE 2 B  - STORY GROUND PSZ-AC, Sum of Air Terminal Maximum Flow Rates [m3/s], 0.92185
 Component Sizing Information, AirLoopHVAC, ZONE OFFICE WHOLEBUILDING - SM OFFICE 2 B  - STORY GROUND PSZ-AC, Adjusted Heating Design Air Flow Rate [m3/s], 0.92185
 Component Sizing Information, AirLoopHVAC, ZONE OFFICE WHOLEBUILDING - SM OFFICE 2 B  - STORY GROUND PSZ-AC, Adjusted Cooling Design Air Flow Rate [m3/s], 0.92185
 Component Sizing Information, AirLoopHVAC, ZONE OFFICE WHOLEBUILDING - SM OFFICE 2 B  - STORY GROUND PSZ-AC, Adjusted Main Design Air Flow Rate [m3/s], 0.92185
 Component Sizing Information, AirLoopHVAC, ZONE OFFICE WHOLEBUILDING - SM OFFICE 2 B  - STORY GROUND PSZ-AC, User Heating Air Flow Ratio [], 1.00000
 Component Sizing Information, AirLoopHVAC, ZONE OFFICE WHOLEBUILDING - SM OFFICE 2 B  - STORY GROUND PSZ-AC, Calculated Heating Air Flow Ratio [], 1.00000
 Component Sizing Information, AirLoopHVAC, ZONE OFFICE WHOLEBUILDING - SM OFFICE 2 B END_A - STORY GROUND PSZ-AC, Sum of Air Terminal Maximum Heating Flow Rates [m3/s], 0.21472
 Component Sizing Information, AirLoopHVAC, ZONE OFFICE WHOLEBUILDING - SM OFFICE 2 B END_A - STORY GROUND PSZ-AC, Sum of Air Terminal Minimum Heating Flow Rates [m3/s], 0.21472
 Component Sizing Information, AirLoopHVAC, ZONE OFFICE WHOLEBUILDING - SM OFFICE 2 B END_A - STORY GROUND PSZ-AC, Sum of Air Terminal Maximum Flow Rates [m3/s], 0.21472
 Component Sizing Information, AirLoopHVAC, ZONE OFFICE WHOLEBUILDING - SM OFFICE 2 B END_A - STORY GROUND PSZ-AC, Adjusted Heating Design Air Flow Rate [m3/s], 0.21472
 Component Sizing Information, AirLoopHVAC, ZONE OFFICE WHOLEBUILDING - SM OFFICE 2 B END_A - STORY GROUND PSZ-AC, Adjusted Cooling Design Air Flow Rate [m3/s], 0.21472
 Component Sizing Information, AirLoopHVAC, ZONE OFFICE WHOLEBUILDING - SM OFFICE 2 B END_A - STORY GROUND PSZ-AC, Adjusted Main Design Air Flow Rate [m3/s], 0.21472
 Component Sizing Information, AirLoopHVAC, ZONE OFFICE WHOLEBUILDING - SM OFFICE 2 B END_A - STORY GROUND PSZ-AC, User Heating Air Flow Ratio [], 1.00000
 Component Sizing Information, AirLoopHVAC, ZONE OFFICE WHOLEBUILDING - SM OFFICE 2 B END_A - STORY GROUND PSZ-AC, Calculated Heating Air Flow Ratio [], 1.00000
 Component Sizing Information, AirLoopHVAC, ZONE OFFICE WHOLEBUILDING - SM OFFICE 2 B END_B - STORY GROUND PSZ-AC, Sum of Air Terminal Maximum Heating Flow Rates [m3/s], 0.20823
 Component Sizing Information, AirLoopHVAC, ZONE OFFICE WHOLEBUILDING - SM OFFICE 2 B END_B - STORY GROUND PSZ-AC, Sum of Air Terminal Minimum Heating Flow Rates [m3/s], 0.20823
 Component Sizing Information, AirLoopHVAC, ZONE OFFICE WHOLEBUILDING - SM OFFICE 2 B END_B - STORY GROUND PSZ-AC, Sum of Air Terminal Maximum Flow Rates [m3/s], 0.20823
 Component Sizing Information, AirLoopHVAC, ZONE OFFICE WHOLEBUILDING - SM OFFICE 2 B END_B - STORY GROUND PSZ-AC, Adjusted Heating Design Air Flow Rate [m3/s], 0.20823
 Component Sizing Information, AirLoopHVAC, ZONE OFFICE WHOLEBUILDING - SM OFFICE 2 B END_B - STORY GROUND PSZ-AC, Adjusted Cooling Design Air Flow Rate [m3/s], 0.20823
 Component Sizing Information, AirLoopHVAC, ZONE OFFICE WHOLEBUILDING - SM OFFICE 2 B END_B - STORY GROUND PSZ-AC, Adjusted Main Design Air Flow Rate [m3/s], 0.20823
 Component Sizing Information, AirLoopHVAC, ZONE OFFICE WHOLEBUILDING - SM OFFICE 2 B END_B - STORY GROUND PSZ-AC, User Heating Air Flow Ratio [], 1.00000
 Component Sizing Information, AirLoopHVAC, ZONE OFFICE WHOLEBUILDING - SM OFFICE 2 B END_B - STORY GROUND PSZ-AC, Calculated Heating Air Flow Ratio [], 1.00000
 Component Sizing Information, AirLoopHVAC, ZONE OFFICE WHOLEBUILDING - SM OFFICE 2 C  - STORY GROUND PSZ-AC, Sum of Air Terminal Maximum Heating Flow Rates [m3/s], 0.28102
 Component Sizing Information, AirLoopHVAC, ZONE OFFICE WHOLEBUILDING - SM OFFICE 2 C  - STORY GROUND PSZ-AC, Sum of Air Terminal Minimum Heating Flow Rates [m3/s], 0.28102
 Component Sizing Information, AirLoopHVAC, ZONE OFFICE WHOLEBUILDING - SM OFFICE 2 C  - STORY GROUND PSZ-AC, Sum of Air Terminal Maximum Flow Rates [m3/s], 0.28102
 Component Sizing Information, AirLoopHVAC, ZONE OFFICE WHOLEBUILDING - SM OFFICE 2 C  - STORY GROUND PSZ-AC, Adjusted Heating Design Air Flow Rate [m3/s], 0.28102
 Component Sizing Information, AirLoopHVAC, ZONE OFFICE WHOLEBUILDING - SM OFFICE 2 C  - STORY GROUND PSZ-AC, Adjusted Cooling Design Air Flow Rate [m3/s], 0.28102
 Component Sizing Information, AirLoopHVAC, ZONE OFFICE WHOLEBUILDING - SM OFFICE 2 C  - STORY GROUND PSZ-AC, Adjusted Main Design Air Flow Rate [m3/s], 0.28102
 Component Sizing Information, AirLoopHVAC, ZONE OFFICE WHOLEBUILDING - SM OFFICE 2 C  - STORY GROUND PSZ-AC, User Heating Air Flow Ratio [], 1.00000
 Component Sizing Information, AirLoopHVAC, ZONE OFFICE WHOLEBUILDING - SM OFFICE 2 C  - STORY GROUND PSZ-AC, Calculated Heating Air Flow Ratio [], 1.00000
 Component Sizing Information, AirLoopHVAC, ZONE OFFICE WHOLEBUILDING - SM OFFICE 2 C END_A - STORY GROUND PSZ-AC, Sum of Air Terminal Maximum Heating Flow Rates [m3/s], 6.25907E-002
 Component Sizing Information, AirLoopHVAC, ZONE OFFICE WHOLEBUILDING - SM OFFICE 2 C END_A - STORY GROUND PSZ-AC, Sum of Air Terminal Minimum Heating Flow Rates [m3/s], 6.25907E-002
 Component Sizing Information, AirLoopHVAC, ZONE OFFICE WHOLEBUILDING - SM OFFICE 2 C END_A - STORY GROUND PSZ-AC, Sum of Air Terminal Maximum Flow Rates [m3/s], 6.25907E-002
 Component Sizing Information, AirLoopHVAC, ZONE OFFICE WHOLEBUILDING - SM OFFICE 2 C END_A - STORY GROUND PSZ-AC, Adjusted Heating Design Air Flow Rate [m3/s], 6.25907E-002
 Component Sizing Information, AirLoopHVAC, ZONE OFFICE WHOLEBUILDING - SM OFFICE 2 C END_A - STORY GROUND PSZ-AC, Adjusted Cooling Design Air Flow Rate [m3/s], 6.25907E-002
 Component Sizing Information, AirLoopHVAC, ZONE OFFICE WHOLEBUILDING - SM OFFICE 2 C END_A - STORY GROUND PSZ-AC, Adjusted Main Design Air Flow Rate [m3/s], 6.25907E-002
 Component Sizing Information, AirLoopHVAC, ZONE OFFICE WHOLEBUILDING - SM OFFICE 2 C END_A - STORY GROUND PSZ-AC, User Heating Air Flow Ratio [], 1.00000
 Component Sizing Information, AirLoopHVAC, ZONE OFFICE WHOLEBUILDING - SM OFFICE 2 C END_A - STORY GROUND PSZ-AC, Calculated Heating Air Flow Ratio [], 1.00000
 Component Sizing Information, AirLoopHVAC, ZONE OFFICE WHOLEBUILDING - SM OFFICE 2 C END_B - STORY GROUND PSZ-AC, Sum of Air Terminal Maximum Heating Flow Rates [m3/s], 6.25727E-002
 Component Sizing Information, AirLoopHVAC, ZONE OFFICE WHOLEBUILDING - SM OFFICE 2 C END_B - STORY GROUND PSZ-AC, Sum of Air Terminal Minimum Heating Flow Rates [m3/s], 6.25727E-002
 Component Sizing Information, AirLoopHVAC, ZONE OFFICE WHOLEBUILDING - SM OFFICE 2 C END_B - STORY GROUND PSZ-AC, Sum of Air Terminal Maximum Flow Rates [m3/s], 6.25727E-002
 Component Sizing Information, AirLoopHVAC, ZONE OFFICE WHOLEBUILDING - SM OFFICE 2 C END_B - STORY GROUND PSZ-AC, Adjusted Heating Design Air Flow Rate [m3/s], 6.25727E-002
 Component Sizing Information, AirLoopHVAC, ZONE OFFICE WHOLEBUILDING - SM OFFICE 2 C END_B - STORY GROUND PSZ-AC, Adjusted Cooling Design Air Flow Rate [m3/s], 6.25727E-002
 Component Sizing Information, AirLoopHVAC, ZONE OFFICE WHOLEBUILDING - SM OFFICE 2 C END_B - STORY GROUND PSZ-AC, Adjusted Main Design Air Flow Rate [m3/s], 6.25727E-002
 Component Sizing Information, AirLoopHVAC, ZONE OFFICE WHOLEBUILDING - SM OFFICE 2 C END_B - STORY GROUND PSZ-AC, User Heating Air Flow Ratio [], 1.00000
 Component Sizing Information, AirLoopHVAC, ZONE OFFICE WHOLEBUILDING - SM OFFICE 2 C END_B - STORY GROUND PSZ-AC, Calculated Heating Air Flow Ratio [], 1.00000
 Component Sizing Information, AirLoopHVAC, ZONE OFFICE WHOLEBUILDING - SM OFFICE 2 A  - STORY GROUND PSZ-AC, Design Supply Air Flow Rate [m3/s], 0.39148
 Component Sizing Information, AirLoopHVAC, ZONE OFFICE WHOLEBUILDING - SM OFFICE 2 A END_A - STORY GROUND PSZ-AC, Design Supply Air Flow Rate [m3/s], 7.46936E-002
 Component Sizing Information, AirLoopHVAC, ZONE OFFICE WHOLEBUILDING - SM OFFICE 2 A END_B - STORY GROUND PSZ-AC, Design Supply Air Flow Rate [m3/s], 7.46688E-002
 Component Sizing Information, AirLoopHVAC, ZONE OFFICE WHOLEBUILDING - SM OFFICE 2 B  - STORY GROUND PSZ-AC, Design Supply Air Flow Rate [m3/s], 0.92185
 Component Sizing Information, AirLoopHVAC, ZONE OFFICE WHOLEBUILDING - SM OFFICE 2 B END_A - STORY GROUND PSZ-AC, Design Supply Air Flow Rate [m3/s], 0.21472
 Component Sizing Information, AirLoopHVAC, ZONE OFFICE WHOLEBUILDING - SM OFFICE 2 B END_B - STORY GROUND PSZ-AC, Design Supply Air Flow Rate [m3/s], 0.20823
 Component Sizing Information, AirLoopHVAC, ZONE OFFICE WHOLEBUILDING - SM OFFICE 2 C  - STORY GROUND PSZ-AC, Design Supply Air Flow Rate [m3/s], 0.28102
 Component Sizing Information, AirLoopHVAC, ZONE OFFICE WHOLEBUILDING - SM OFFICE 2 C END_A - STORY GROUND PSZ-AC, Design Supply Air Flow Rate [m3/s], 6.25907E-002
 Component Sizing Information, AirLoopHVAC, ZONE OFFICE WHOLEBUILDING - SM OFFICE 2 C END_B - STORY GROUND PSZ-AC, Design Supply Air Flow Rate [m3/s], 6.25727E-002
!<Controller:MechanicalVentilation>,Name,Availability Schedule Name,Demand Controlled Ventilation {Yes/No},System Outdoor Air Method,Zone Maximum Outdoor Air Fraction,Number of Zones,Zone Name,DSOA Name,DSZAD Name
 Controller:MechanicalVentilation,CONTROLLER MECHANICAL VENTILATION 1,ALWAYS ON DISCRETE,No,ZoneSum,1.00,1,ZONE OFFICE WHOLEBUILDING - SM OFFICE 2 A  - STORY GROUND,OFFICE WHOLEBUILDING - SM OFFICE 2 VENTILATION,
 Controller:MechanicalVentilation,CONTROLLER MECHANICAL VENTILATION 2,ALWAYS ON DISCRETE,No,ZoneSum,1.00,1,ZONE OFFICE WHOLEBUILDING - SM OFFICE 2 A END_A - STORY GROUND,OFFICE WHOLEBUILDING - SM OFFICE 2 VENTILATION,
 Controller:MechanicalVentilation,CONTROLLER MECHANICAL VENTILATION 3,ALWAYS ON DISCRETE,No,ZoneSum,1.00,1,ZONE OFFICE WHOLEBUILDING - SM OFFICE 2 A END_B - STORY GROUND,OFFICE WHOLEBUILDING - SM OFFICE 2 VENTILATION,
 Controller:MechanicalVentilation,CONTROLLER MECHANICAL VENTILATION 4,ALWAYS ON DISCRETE,No,ZoneSum,1.00,1,ZONE OFFICE WHOLEBUILDING - SM OFFICE 2 B  - STORY GROUND,OFFICE WHOLEBUILDING - SM OFFICE 2 VENTILATION,
 Controller:MechanicalVentilation,CONTROLLER MECHANICAL VENTILATION 5,ALWAYS ON DISCRETE,No,ZoneSum,1.00,1,ZONE OFFICE WHOLEBUILDING - SM OFFICE 2 B END_A - STORY GROUND,OFFICE WHOLEBUILDING - SM OFFICE 2 VENTILATION,
 Controller:MechanicalVentilation,CONTROLLER MECHANICAL VENTILATION 6,ALWAYS ON DISCRETE,No,ZoneSum,1.00,1,ZONE OFFICE WHOLEBUILDING - SM OFFICE 2 B END_B - STORY GROUND,OFFICE WHOLEBUILDING - SM OFFICE 2 VENTILATION,
 Controller:MechanicalVentilation,CONTROLLER MECHANICAL VENTILATION 7,ALWAYS ON DISCRETE,No,ZoneSum,1.00,1,ZONE OFFICE WHOLEBUILDING - SM OFFICE 2 C  - STORY GROUND,OFFICE WHOLEBUILDING - SM OFFICE 2 VENTILATION,
 Controller:MechanicalVentilation,CONTROLLER MECHANICAL VENTILATION 8,ALWAYS ON DISCRETE,No,ZoneSum,1.00,1,ZONE OFFICE WHOLEBUILDING - SM OFFICE 2 C END_A - STORY GROUND,OFFICE WHOLEBUILDING - SM OFFICE 2 VENTILATION,
 Controller:MechanicalVentilation,CONTROLLER MECHANICAL VENTILATION 9,ALWAYS ON DISCRETE,No,ZoneSum,1.00,1,ZONE OFFICE WHOLEBUILDING - SM OFFICE 2 C END_B - STORY GROUND,OFFICE WHOLEBUILDING - SM OFFICE 2 VENTILATION,
 Component Sizing Information, Controller:OutdoorAir, ZONE OFFICE WHOLEBUILDING - SM OFFICE 2 A  - STORY GROUND PSZ-AC OA SYSTEM CONTROLLER, Maximum Outdoor Air Flow Rate [m3/s], 0.39148
 Component Sizing Information, Controller:OutdoorAir, ZONE OFFICE WHOLEBUILDING - SM OFFICE 2 A  - STORY GROUND PSZ-AC OA SYSTEM CONTROLLER, Minimum Outdoor Air Flow Rate [m3/s], 5.61956E-002
 Component Sizing Information, AirLoopHVAC:UnitarySystem, ZONE OFFICE WHOLEBUILDING - SM OFFICE 2 A  - STORY GROUND PSZ-AC UNITARY AC, Design Size Supply Air Flow Rate [m3/s], 0.39148
 Component Sizing Information, AirLoopHVAC:UnitarySystem, ZONE OFFICE WHOLEBUILDING - SM OFFICE 2 A  - STORY GROUND PSZ-AC UNITARY AC, Design Size Heating Supply Air Flow Rate [m3/s], 0.39148
 Component Sizing Information, AirLoopHVAC:UnitarySystem, ZONE OFFICE WHOLEBUILDING - SM OFFICE 2 A  - STORY GROUND PSZ-AC UNITARY AC, Design Size Cooling Supply Air Flow Rate [m3/s], 0.39148
 Component Sizing Information, AirLoopHVAC:UnitarySystem, ZONE OFFICE WHOLEBUILDING - SM OFFICE 2 A  - STORY GROUND PSZ-AC UNITARY AC, User-Specified No Load Supply Air Flow Rate [m3/s], 0.00000
 Component Sizing Information, AirLoopHVAC:UnitarySystem, ZONE OFFICE WHOLEBUILDING - SM OFFICE 2 A  - STORY GROUND PSZ-AC UNITARY AC, Design Size Nominal Cooling Capacity [W], 6480.36077
 Component Sizing Information, AirLoopHVAC:UnitarySystem, ZONE OFFICE WHOLEBUILDING - SM OFFICE 2 A  - STORY GROUND PSZ-AC UNITARY AC, Design Size Nominal Heating Capacity [W], 15929.81608
 Component Sizing Information, AirLoopHVAC:UnitarySystem, ZONE OFFICE WHOLEBUILDING - SM OFFICE 2 A  - STORY GROUND PSZ-AC UNITARY AC, Design Size Maximum Supply Air Temperature [C], 50.00000
 Component Sizing Information, AirLoopHVAC:UnitarySystem, ZONE OFFICE WHOLEBUILDING - SM OFFICE 2 A  - STORY GROUND PSZ-AC UNITARY AC, User-Specified Maximum Supply Air Temperature [C], 80.00000
 Component Sizing Information, AirLoopHVAC:UnitarySystem, ZONE OFFICE WHOLEBUILDING - SM OFFICE 2 A  - STORY GROUND PSZ-AC UNITARY AC, User-Specified Supplemental Heating Coil Nominal Capacity [W], 0.00000
 Component Sizing Information, AirLoopHVAC:UnitarySystem, ZONE OFFICE WHOLEBUILDING - SM OFFICE 2 A  - STORY GROUND PSZ-AC UNITARY AC, Fraction of Supply Air Flow That Goes Through the Controlling Zone, 1.00000
 Component Sizing Information, Coil:Cooling:DX:SingleSpeed, ZONE OFFICE WHOLEBUILDING - SM OFFICE 2 A  - STORY GROUND PSZ-AC 1SPD DX AC CLG COIL, Design Size Rated Air Flow Rate [m3/s], 0.39148
 Component Sizing Information, Coil:Cooling:DX:SingleSpeed, ZONE OFFICE WHOLEBUILDING - SM OFFICE 2 A  - STORY GROUND PSZ-AC 1SPD DX AC CLG COIL, Design Size Gross Rated Total Cooling Capacity [W], 6480.36077
 Component Sizing Information, Coil:Cooling:DX:SingleSpeed, ZONE OFFICE WHOLEBUILDING - SM OFFICE 2 A  - STORY GROUND PSZ-AC 1SPD DX AC CLG COIL, Design Size Gross Rated Sensible Heat Ratio, 0.80066
! <DX Cooling Coil Standard Rating Information>, Component Type, Component Name, Standard Rating (Net) Cooling Capacity {W}, Standard Rated Net COP {W/W}, EER {Btu/W-h}, SEER User {Btu/W-h}, SEER Standard {Btu/W-h}, IEER {Btu/W-h}
 DX Cooling Coil Standard Rating Information, Coil:Cooling:DX:SingleSpeed, ZONE OFFICE WHOLEBUILDING - SM OFFICE 2 A  - STORY GROUND PSZ-AC 1SPD DX AC CLG COIL, 6177.0, 2.51, 8.56, 9.83, 8.99, 9.37
 DX Cooling Coil Standard Rating Information, Coil:Cooling:DX:SingleSpeed, ZONE OFFICE WHOLEBUILDING - SM OFFICE 2 A  - STORY GROUND PSZ-AC 1SPD DX AC CLG COIL, 6113.9, 2.42, 8.26, 9.46, 8.90,  
 Component Sizing Information, Coil:Heating:Fuel, ZONE OFFICE WHOLEBUILDING - SM OFFICE 2 A  - STORY GROUND PSZ-AC GAS HTG COIL, Design Size Nominal Capacity [W], 15929.81608
 Component Sizing Information, Fan:OnOff, ZONE OFFICE WHOLEBUILDING - SM OFFICE 2 A  - STORY GROUND PSZ-AC FAN, Design Size Maximum Flow Rate [m3/s], 0.39148
 Component Sizing Information, Coil:Heating:Electric, ZONE OFFICE WHOLEBUILDING - SM OFFICE 2 A  - STORY GROUND PSZ-AC NO HEAT, User-Specified Nominal Capacity [W], 0.00000
 Component Sizing Information, Controller:OutdoorAir, ZONE OFFICE WHOLEBUILDING - SM OFFICE 2 A END_A - STORY GROUND PSZ-AC OA SYSTEM CONTROLLER, Maximum Outdoor Air Flow Rate [m3/s], 7.46936E-002
 Component Sizing Information, Controller:OutdoorAir, ZONE OFFICE WHOLEBUILDING - SM OFFICE 2 A END_A - STORY GROUND PSZ-AC OA SYSTEM CONTROLLER, Minimum Outdoor Air Flow Rate [m3/s], 9.02599E-003
 Component Sizing Information, AirLoopHVAC:UnitarySystem, ZONE OFFICE WHOLEBUILDING - SM OFFICE 2 A END_A - STORY GROUND PSZ-AC UNITARY AC, Design Size Supply Air Flow Rate [m3/s], 7.46936E-002
 Component Sizing Information, AirLoopHVAC:UnitarySystem, ZONE OFFICE WHOLEBUILDING - SM OFFICE 2 A END_A - STORY GROUND PSZ-AC UNITARY AC, Design Size Heating Supply Air Flow Rate [m3/s], 7.46936E-002
 Component Sizing Information, AirLoopHVAC:UnitarySystem, ZONE OFFICE WHOLEBUILDING - SM OFFICE 2 A END_A - STORY GROUND PSZ-AC UNITARY AC, Design Size Cooling Supply Air Flow Rate [m3/s], 7.46936E-002
 Component Sizing Information, AirLoopHVAC:UnitarySystem, ZONE OFFICE WHOLEBUILDING - SM OFFICE 2 A END_A - STORY GROUND PSZ-AC UNITARY AC, User-Specified No Load Supply Air Flow Rate [m3/s], 0.00000
 Component Sizing Information, AirLoopHVAC:UnitarySystem, ZONE OFFICE WHOLEBUILDING - SM OFFICE 2 A END_A - STORY GROUND PSZ-AC UNITARY AC, Design Size Nominal Cooling Capacity [W], 1236.44444
 Component Sizing Information, AirLoopHVAC:UnitarySystem, ZONE OFFICE WHOLEBUILDING - SM OFFICE 2 A END_A - STORY GROUND PSZ-AC UNITARY AC, Design Size Nominal Heating Capacity [W], 2970.26400
 Component Sizing Information, AirLoopHVAC:UnitarySystem, ZONE OFFICE WHOLEBUILDING - SM OFFICE 2 A END_A - STORY GROUND PSZ-AC UNITARY AC, Design Size Maximum Supply Air Temperature [C], 50.00000
 Component Sizing Information, AirLoopHVAC:UnitarySystem, ZONE OFFICE WHOLEBUILDING - SM OFFICE 2 A END_A - STORY GROUND PSZ-AC UNITARY AC, User-Specified Maximum Supply Air Temperature [C], 80.00000
 Component Sizing Information, AirLoopHVAC:UnitarySystem, ZONE OFFICE WHOLEBUILDING - SM OFFICE 2 A END_A - STORY GROUND PSZ-AC UNITARY AC, User-Specified Supplemental Heating Coil Nominal Capacity [W], 0.00000
 Component Sizing Information, AirLoopHVAC:UnitarySystem, ZONE OFFICE WHOLEBUILDING - SM OFFICE 2 A END_A - STORY GROUND PSZ-AC UNITARY AC, Fraction of Supply Air Flow That Goes Through the Controlling Zone, 1.00000
 Component Sizing Information, Coil:Cooling:DX:SingleSpeed, ZONE OFFICE WHOLEBUILDING - SM OFFICE 2 A END_A - STORY GROUND PSZ-AC 1SPD DX AC CLG COIL, Design Size Rated Air Flow Rate [m3/s], 7.46936E-002
 Component Sizing Information, Coil:Cooling:DX:SingleSpeed, ZONE OFFICE WHOLEBUILDING - SM OFFICE 2 A END_A - STORY GROUND PSZ-AC 1SPD DX AC CLG COIL, Design Size Gross Rated Total Cooling Capacity [W], 1236.44444
 Component Sizing Information, Coil:Cooling:DX:SingleSpeed, ZONE OFFICE WHOLEBUILDING - SM OFFICE 2 A END_A - STORY GROUND PSZ-AC 1SPD DX AC CLG COIL, Design Size Gross Rated Sensible Heat Ratio, 0.80066
 DX Cooling Coil Standard Rating Information, Coil:Cooling:DX:SingleSpeed, ZONE OFFICE WHOLEBUILDING - SM OFFICE 2 A END_A - STORY GROUND PSZ-AC 1SPD DX AC CLG COIL, 1178.6, 2.51, 8.56, 9.83, 8.99, 9.37
 DX Cooling Coil Standard Rating Information, Coil:Cooling:DX:SingleSpeed, ZONE OFFICE WHOLEBUILDING - SM OFFICE 2 A END_A - STORY GROUND PSZ-AC 1SPD DX AC CLG COIL, 1166.5, 2.42, 8.26, 9.46, 8.90,  
 Component Sizing Information, Coil:Heating:Fuel, ZONE OFFICE WHOLEBUILDING - SM OFFICE 2 A END_A - STORY GROUND PSZ-AC GAS HTG COIL, Design Size Nominal Capacity [W], 2970.26400
 Component Sizing Information, Fan:OnOff, ZONE OFFICE WHOLEBUILDING - SM OFFICE 2 A END_A - STORY GROUND PSZ-AC FAN, Design Size Maximum Flow Rate [m3/s], 7.46936E-002
 Component Sizing Information, Coil:Heating:Electric, ZONE OFFICE WHOLEBUILDING - SM OFFICE 2 A END_A - STORY GROUND PSZ-AC NO HEAT, User-Specified Nominal Capacity [W], 0.00000
 Component Sizing Information, Controller:OutdoorAir, ZONE OFFICE WHOLEBUILDING - SM OFFICE 2 A END_B - STORY GROUND PSZ-AC OA SYSTEM CONTROLLER, Maximum Outdoor Air Flow Rate [m3/s], 7.46688E-002
 Component Sizing Information, Controller:OutdoorAir, ZONE OFFICE WHOLEBUILDING - SM OFFICE 2 A END_B - STORY GROUND PSZ-AC OA SYSTEM CONTROLLER, Minimum Outdoor Air Flow Rate [m3/s], 9.02599E-003
 Component Sizing Information, AirLoopHVAC:UnitarySystem, ZONE OFFICE WHOLEBUILDING - SM OFFICE 2 A END_B - STORY GROUND PSZ-AC UNITARY AC, Design Size Supply Air Flow Rate [m3/s], 7.46688E-002
 Component Sizing Information, AirLoopHVAC:UnitarySystem, ZONE OFFICE WHOLEBUILDING - SM OFFICE 2 A END_B - STORY GROUND PSZ-AC UNITARY AC, Design Size Heating Supply Air Flow Rate [m3/s], 7.46688E-002
 Component Sizing Information, AirLoopHVAC:UnitarySystem, ZONE OFFICE WHOLEBUILDING - SM OFFICE 2 A END_B - STORY GROUND PSZ-AC UNITARY AC, Design Size Cooling Supply Air Flow Rate [m3/s], 7.46688E-002
 Component Sizing Information, AirLoopHVAC:UnitarySystem, ZONE OFFICE WHOLEBUILDING - SM OFFICE 2 A END_B - STORY GROUND PSZ-AC UNITARY AC, User-Specified No Load Supply Air Flow Rate [m3/s], 0.00000
 Component Sizing Information, AirLoopHVAC:UnitarySystem, ZONE OFFICE WHOLEBUILDING - SM OFFICE 2 A END_B - STORY GROUND PSZ-AC UNITARY AC, Design Size Nominal Cooling Capacity [W], 1236.03345
 Component Sizing Information, AirLoopHVAC:UnitarySystem, ZONE OFFICE WHOLEBUILDING - SM OFFICE 2 A END_B - STORY GROUND PSZ-AC UNITARY AC, Design Size Nominal Heating Capacity [W], 2969.39927
 Component Sizing Information, AirLoopHVAC:UnitarySystem, ZONE OFFICE WHOLEBUILDING - SM OFFICE 2 A END_B - STORY GROUND PSZ-AC UNITARY AC, Design Size Maximum Supply Air Temperature [C], 50.00000
 Component Sizing Information, AirLoopHVAC:UnitarySystem, ZONE OFFICE WHOLEBUILDING - SM OFFICE 2 A END_B - STORY GROUND PSZ-AC UNITARY AC, User-Specified Maximum Supply Air Temperature [C], 80.00000
 Component Sizing Information, AirLoopHVAC:UnitarySystem, ZONE OFFICE WHOLEBUILDING - SM OFFICE 2 A END_B - STORY GROUND PSZ-AC UNITARY AC, User-Specified Supplemental Heating Coil Nominal Capacity [W], 0.00000
 Component Sizing Information, AirLoopHVAC:UnitarySystem, ZONE OFFICE WHOLEBUILDING - SM OFFICE 2 A END_B - STORY GROUND PSZ-AC UNITARY AC, Fraction of Supply Air Flow That Goes Through the Controlling Zone, 1.00000
 Component Sizing Information, Coil:Cooling:DX:SingleSpeed, ZONE OFFICE WHOLEBUILDING - SM OFFICE 2 A END_B - STORY GROUND PSZ-AC 1SPD DX AC CLG COIL, Design Size Rated Air Flow Rate [m3/s], 7.46688E-002
 Component Sizing Information, Coil:Cooling:DX:SingleSpeed, ZONE OFFICE WHOLEBUILDING - SM OFFICE 2 A END_B - STORY GROUND PSZ-AC 1SPD DX AC CLG COIL, Design Size Gross Rated Total Cooling Capacity [W], 1236.03345
 Component Sizing Information, Coil:Cooling:DX:SingleSpeed, ZONE OFFICE WHOLEBUILDING - SM OFFICE 2 A END_B - STORY GROUND PSZ-AC 1SPD DX AC CLG COIL, Design Size Gross Rated Sensible Heat Ratio, 0.80066
 DX Cooling Coil Standard Rating Information, Coil:Cooling:DX:SingleSpeed, ZONE OFFICE WHOLEBUILDING - SM OFFICE 2 A END_B - STORY GROUND PSZ-AC 1SPD DX AC CLG COIL, 1178.2, 2.51, 8.56, 9.83, 8.99, 9.37
 DX Cooling Coil Standard Rating Information, Coil:Cooling:DX:SingleSpeed, ZONE OFFICE WHOLEBUILDING - SM OFFICE 2 A END_B - STORY GROUND PSZ-AC 1SPD DX AC CLG COIL, 1166.1, 2.42, 8.26, 9.46, 8.90,  
 Component Sizing Information, Coil:Heating:Fuel, ZONE OFFICE WHOLEBUILDING - SM OFFICE 2 A END_B - STORY GROUND PSZ-AC GAS HTG COIL, Design Size Nominal Capacity [W], 2969.39927
 Component Sizing Information, Fan:OnOff, ZONE OFFICE WHOLEBUILDING - SM OFFICE 2 A END_B - STORY GROUND PSZ-AC FAN, Design Size Maximum Flow Rate [m3/s], 7.46688E-002
 Component Sizing Information, Coil:Heating:Electric, ZONE OFFICE WHOLEBUILDING - SM OFFICE 2 A END_B - STORY GROUND PSZ-AC NO HEAT, User-Specified Nominal Capacity [W], 0.00000
 Component Sizing Information, Controller:OutdoorAir, ZONE OFFICE WHOLEBUILDING - SM OFFICE 2 B  - STORY GROUND PSZ-AC OA SYSTEM CONTROLLER, Maximum Outdoor Air Flow Rate [m3/s], 0.92185
 Component Sizing Information, Controller:OutdoorAir, ZONE OFFICE WHOLEBUILDING - SM OFFICE 2 B  - STORY GROUND PSZ-AC OA SYSTEM CONTROLLER, Minimum Outdoor Air Flow Rate [m3/s], 0.19578
 Component Sizing Information, AirLoopHVAC:UnitarySystem, ZONE OFFICE WHOLEBUILDING - SM OFFICE 2 B  - STORY GROUND PSZ-AC UNITARY AC, Design Size Supply Air Flow Rate [m3/s], 0.92185
 Component Sizing Information, AirLoopHVAC:UnitarySystem, ZONE OFFICE WHOLEBUILDING - SM OFFICE 2 B  - STORY GROUND PSZ-AC UNITARY AC, Design Size Heating Supply Air Flow Rate [m3/s], 0.92185
 Component Sizing Information, AirLoopHVAC:UnitarySystem, ZONE OFFICE WHOLEBUILDING - SM OFFICE 2 B  - STORY GROUND PSZ-AC UNITARY AC, Design Size Cooling Supply Air Flow Rate [m3/s], 0.92185
 Component Sizing Information, AirLoopHVAC:UnitarySystem, ZONE OFFICE WHOLEBUILDING - SM OFFICE 2 B  - STORY GROUND PSZ-AC UNITARY AC, User-Specified No Load Supply Air Flow Rate [m3/s], 0.00000
 Component Sizing Information, AirLoopHVAC:UnitarySystem, ZONE OFFICE WHOLEBUILDING - SM OFFICE 2 B  - STORY GROUND PSZ-AC UNITARY AC, Design Size Nominal Cooling Capacity [W], 15259.81909
 Component Sizing Information, AirLoopHVAC:UnitarySystem, ZONE OFFICE WHOLEBUILDING - SM OFFICE 2 B  - STORY GROUND PSZ-AC UNITARY AC, Design Size Nominal Heating Capacity [W], 40101.40686
 Component Sizing Information, AirLoopHVAC:UnitarySystem, ZONE OFFICE WHOLEBUILDING - SM OFFICE 2 B  - STORY GROUND PSZ-AC UNITARY AC, Design Size Maximum Supply Air Temperature [C], 50.00000
 Component Sizing Information, AirLoopHVAC:UnitarySystem, ZONE OFFICE WHOLEBUILDING - SM OFFICE 2 B  - STORY GROUND PSZ-AC UNITARY AC, User-Specified Maximum Supply Air Temperature [C], 80.00000
 Component Sizing Information, AirLoopHVAC:UnitarySystem, ZONE OFFICE WHOLEBUILDING - SM OFFICE 2 B  - STORY GROUND PSZ-AC UNITARY AC, User-Specified Supplemental Heating Coil Nominal Capacity [W], 0.00000
 Component Sizing Information, AirLoopHVAC:UnitarySystem, ZONE OFFICE WHOLEBUILDING - SM OFFICE 2 B  - STORY GROUND PSZ-AC UNITARY AC, Fraction of Supply Air Flow That Goes Through the Controlling Zone, 1.00000
 Component Sizing Information, Coil:Cooling:DX:SingleSpeed, ZONE OFFICE WHOLEBUILDING - SM OFFICE 2 B  - STORY GROUND PSZ-AC 1SPD DX AC CLG COIL, Design Size Rated Air Flow Rate [m3/s], 0.92185
 Component Sizing Information, Coil:Cooling:DX:SingleSpeed, ZONE OFFICE WHOLEBUILDING - SM OFFICE 2 B  - STORY GROUND PSZ-AC 1SPD DX AC CLG COIL, Design Size Gross Rated Total Cooling Capacity [W], 15259.81909
 Component Sizing Information, Coil:Cooling:DX:SingleSpeed, ZONE OFFICE WHOLEBUILDING - SM OFFICE 2 B  - STORY GROUND PSZ-AC 1SPD DX AC CLG COIL, Design Size Gross Rated Sensible Heat Ratio, 0.80066
 DX Cooling Coil Standard Rating Information, Coil:Cooling:DX:SingleSpeed, ZONE OFFICE WHOLEBUILDING - SM OFFICE 2 B  - STORY GROUND PSZ-AC 1SPD DX AC CLG COIL, 14545.4, 2.51, 8.56, 9.83, 8.99, 9.37
 DX Cooling Coil Standard Rating Information, Coil:Cooling:DX:SingleSpeed, ZONE OFFICE WHOLEBUILDING - SM OFFICE 2 B  - STORY GROUND PSZ-AC 1SPD DX AC CLG COIL, 14396.9, 2.42, 8.26, 9.46, 8.90,  
 Component Sizing Information, Coil:Heating:Fuel, ZONE OFFICE WHOLEBUILDING - SM OFFICE 2 B  - STORY GROUND PSZ-AC GAS HTG COIL, Design Size Nominal Capacity [W], 40101.40686
 Component Sizing Information, Fan:OnOff, ZONE OFFICE WHOLEBUILDING - SM OFFICE 2 B  - STORY GROUND PSZ-AC FAN, Design Size Maximum Flow Rate [m3/s], 0.92185
 Component Sizing Information, Coil:Heating:Electric, ZONE OFFICE WHOLEBUILDING - SM OFFICE 2 B  - STORY GROUND PSZ-AC NO HEAT, User-Specified Nominal Capacity [W], 0.00000
 Component Sizing Information, Controller:OutdoorAir, ZONE OFFICE WHOLEBUILDING - SM OFFICE 2 B END_A - STORY GROUND PSZ-AC OA SYSTEM CONTROLLER, Maximum Outdoor Air Flow Rate [m3/s], 0.21472
 Component Sizing Information, Controller:OutdoorAir, ZONE OFFICE WHOLEBUILDING - SM OFFICE 2 B END_A - STORY GROUND PSZ-AC OA SYSTEM CONTROLLER, Minimum Outdoor Air Flow Rate [m3/s], 3.14464E-002
 Component Sizing Information, AirLoopHVAC:UnitarySystem, ZONE OFFICE WHOLEBUILDING - SM OFFICE 2 B END_A - STORY GROUND PSZ-AC UNITARY AC, Design Size Supply Air Flow Rate [m3/s], 0.21472
 Component Sizing Information, AirLoopHVAC:UnitarySystem, ZONE OFFICE WHOLEBUILDING - SM OFFICE 2 B END_A - STORY GROUND PSZ-AC UNITARY AC, Design Size Heating Supply Air Flow Rate [m3/s], 0.21472
 Component Sizing Information, AirLoopHVAC:UnitarySystem, ZONE OFFICE WHOLEBUILDING - SM OFFICE 2 B END_A - STORY GROUND PSZ-AC UNITARY AC, Design Size Cooling Supply Air Flow Rate [m3/s], 0.21472
 Component Sizing Information, AirLoopHVAC:UnitarySystem, ZONE OFFICE WHOLEBUILDING - SM OFFICE 2 B END_A - STORY GROUND PSZ-AC UNITARY AC, User-Specified No Load Supply Air Flow Rate [m3/s], 0.00000
 Component Sizing Information, AirLoopHVAC:UnitarySystem, ZONE OFFICE WHOLEBUILDING - SM OFFICE 2 B END_A - STORY GROUND PSZ-AC UNITARY AC, Design Size Nominal Cooling Capacity [W], 3554.30542
 Component Sizing Information, AirLoopHVAC:UnitarySystem, ZONE OFFICE WHOLEBUILDING - SM OFFICE 2 B END_A - STORY GROUND PSZ-AC UNITARY AC, Design Size Nominal Heating Capacity [W], 8762.59606
 Component Sizing Information, AirLoopHVAC:UnitarySystem, ZONE OFFICE WHOLEBUILDING - SM OFFICE 2 B END_A - STORY GROUND PSZ-AC UNITARY AC, Design Size Maximum Supply Air Temperature [C], 50.00000
 Component Sizing Information, AirLoopHVAC:UnitarySystem, ZONE OFFICE WHOLEBUILDING - SM OFFICE 2 B END_A - STORY GROUND PSZ-AC UNITARY AC, User-Specified Maximum Supply Air Temperature [C], 80.00000
 Component Sizing Information, AirLoopHVAC:UnitarySystem, ZONE OFFICE WHOLEBUILDING - SM OFFICE 2 B END_A - STORY GROUND PSZ-AC UNITARY AC, User-Specified Supplemental Heating Coil Nominal Capacity [W], 0.00000
 Component Sizing Information, AirLoopHVAC:UnitarySystem, ZONE OFFICE WHOLEBUILDING - SM OFFICE 2 B END_A - STORY GROUND PSZ-AC UNITARY AC, Fraction of Supply Air Flow That Goes Through the Controlling Zone, 1.00000
 Component Sizing Information, Coil:Cooling:DX:SingleSpeed, ZONE OFFICE WHOLEBUILDING - SM OFFICE 2 B END_A - STORY GROUND PSZ-AC 1SPD DX AC CLG COIL, Design Size Rated Air Flow Rate [m3/s], 0.21472
 Component Sizing Information, Coil:Cooling:DX:SingleSpeed, ZONE OFFICE WHOLEBUILDING - SM OFFICE 2 B END_A - STORY GROUND PSZ-AC 1SPD DX AC CLG COIL, Design Size Gross Rated Total Cooling Capacity [W], 3554.30542
 Component Sizing Information, Coil:Cooling:DX:SingleSpeed, ZONE OFFICE WHOLEBUILDING - SM OFFICE 2 B END_A - STORY GROUND PSZ-AC 1SPD DX AC CLG COIL, Design Size Gross Rated Sensible Heat Ratio, 0.80066
 DX Cooling Coil Standard Rating Information, Coil:Cooling:DX:SingleSpeed, ZONE OFFICE WHOLEBUILDING - SM OFFICE 2 B END_A - STORY GROUND PSZ-AC 1SPD DX AC CLG COIL, 3387.9, 2.51, 8.56, 9.83, 8.99, 9.37
 DX Cooling Coil Standard Rating Information, Coil:Cooling:DX:SingleSpeed, ZONE OFFICE WHOLEBUILDING - SM OFFICE 2 B END_A - STORY GROUND PSZ-AC 1SPD DX AC CLG COIL, 3353.3, 2.42, 8.26, 9.46, 8.90,  
 Component Sizing Information, Coil:Heating:Fuel, ZONE OFFICE WHOLEBUILDING - SM OFFICE 2 B END_A - STORY GROUND PSZ-AC GAS HTG COIL, Design Size Nominal Capacity [W], 8762.59606
 Component Sizing Information, Fan:OnOff, ZONE OFFICE WHOLEBUILDING - SM OFFICE 2 B END_A - STORY GROUND PSZ-AC FAN, Design Size Maximum Flow Rate [m3/s], 0.21472
 Component Sizing Information, Coil:Heating:Electric, ZONE OFFICE WHOLEBUILDING - SM OFFICE 2 B END_A - STORY GROUND PSZ-AC NO HEAT, User-Specified Nominal Capacity [W], 0.00000
 Component Sizing Information, Controller:OutdoorAir, ZONE OFFICE WHOLEBUILDING - SM OFFICE 2 B END_B - STORY GROUND PSZ-AC OA SYSTEM CONTROLLER, Maximum Outdoor Air Flow Rate [m3/s], 0.20823
 Component Sizing Information, Controller:OutdoorAir, ZONE OFFICE WHOLEBUILDING - SM OFFICE 2 B END_B - STORY GROUND PSZ-AC OA SYSTEM CONTROLLER, Minimum Outdoor Air Flow Rate [m3/s], 3.14464E-002
 Component Sizing Information, AirLoopHVAC:UnitarySystem, ZONE OFFICE WHOLEBUILDING - SM OFFICE 2 B END_B - STORY GROUND PSZ-AC UNITARY AC, Design Size Supply Air Flow Rate [m3/s], 0.20823
 Component Sizing Information, AirLoopHVAC:UnitarySystem, ZONE OFFICE WHOLEBUILDING - SM OFFICE 2 B END_B - STORY GROUND PSZ-AC UNITARY AC, Design Size Heating Supply Air Flow Rate [m3/s], 0.20823
 Component Sizing Information, AirLoopHVAC:UnitarySystem, ZONE OFFICE WHOLEBUILDING - SM OFFICE 2 B END_B - STORY GROUND PSZ-AC UNITARY AC, Design Size Cooling Supply Air Flow Rate [m3/s], 0.20823
 Component Sizing Information, AirLoopHVAC:UnitarySystem, ZONE OFFICE WHOLEBUILDING - SM OFFICE 2 B END_B - STORY GROUND PSZ-AC UNITARY AC, User-Specified No Load Supply Air Flow Rate [m3/s], 0.00000
 Component Sizing Information, AirLoopHVAC:UnitarySystem, ZONE OFFICE WHOLEBUILDING - SM OFFICE 2 B END_B - STORY GROUND PSZ-AC UNITARY AC, Design Size Nominal Cooling Capacity [W], 3446.96806
 Component Sizing Information, AirLoopHVAC:UnitarySystem, ZONE OFFICE WHOLEBUILDING - SM OFFICE 2 B END_B - STORY GROUND PSZ-AC UNITARY AC, Design Size Nominal Heating Capacity [W], 8536.78202
 Component Sizing Information, AirLoopHVAC:UnitarySystem, ZONE OFFICE WHOLEBUILDING - SM OFFICE 2 B END_B - STORY GROUND PSZ-AC UNITARY AC, Design Size Maximum Supply Air Temperature [C], 50.00000
 Component Sizing Information, AirLoopHVAC:UnitarySystem, ZONE OFFICE WHOLEBUILDING - SM OFFICE 2 B END_B - STORY GROUND PSZ-AC UNITARY AC, User-Specified Maximum Supply Air Temperature [C], 80.00000
 Component Sizing Information, AirLoopHVAC:UnitarySystem, ZONE OFFICE WHOLEBUILDING - SM OFFICE 2 B END_B - STORY GROUND PSZ-AC UNITARY AC, User-Specified Supplemental Heating Coil Nominal Capacity [W], 0.00000
 Component Sizing Information, AirLoopHVAC:UnitarySystem, ZONE OFFICE WHOLEBUILDING - SM OFFICE 2 B END_B - STORY GROUND PSZ-AC UNITARY AC, Fraction of Supply Air Flow That Goes Through the Controlling Zone, 1.00000
 Component Sizing Information, Coil:Cooling:DX:SingleSpeed, ZONE OFFICE WHOLEBUILDING - SM OFFICE 2 B END_B - STORY GROUND PSZ-AC 1SPD DX AC CLG COIL, Design Size Rated Air Flow Rate [m3/s], 0.20823
 Component Sizing Information, Coil:Cooling:DX:SingleSpeed, ZONE OFFICE WHOLEBUILDING - SM OFFICE 2 B END_B - STORY GROUND PSZ-AC 1SPD DX AC CLG COIL, Design Size Gross Rated Total Cooling Capacity [W], 3446.96806
 Component Sizing Information, Coil:Cooling:DX:SingleSpeed, ZONE OFFICE WHOLEBUILDING - SM OFFICE 2 B END_B - STORY GROUND PSZ-AC 1SPD DX AC CLG COIL, Design Size Gross Rated Sensible Heat Ratio, 0.80066
 DX Cooling Coil Standard Rating Information, Coil:Cooling:DX:SingleSpeed, ZONE OFFICE WHOLEBUILDING - SM OFFICE 2 B END_B - STORY GROUND PSZ-AC 1SPD DX AC CLG COIL, 3285.6, 2.51, 8.56, 9.83, 8.99, 9.37
 DX Cooling Coil Standard Rating Information, Coil:Cooling:DX:SingleSpeed, ZONE OFFICE WHOLEBUILDING - SM OFFICE 2 B END_B - STORY GROUND PSZ-AC 1SPD DX AC CLG COIL, 3252.0, 2.42, 8.26, 9.46, 8.90,  
 Component Sizing Information, Coil:Heating:Fuel, ZONE OFFICE WHOLEBUILDING - SM OFFICE 2 B END_B - STORY GROUND PSZ-AC GAS HTG COIL, Design Size Nominal Capacity [W], 8536.78202
 Component Sizing Information, Fan:OnOff, ZONE OFFICE WHOLEBUILDING - SM OFFICE 2 B END_B - STORY GROUND PSZ-AC FAN, Design Size Maximum Flow Rate [m3/s], 0.20823
 Component Sizing Information, Coil:Heating:Electric, ZONE OFFICE WHOLEBUILDING - SM OFFICE 2 B END_B - STORY GROUND PSZ-AC NO HEAT, User-Specified Nominal Capacity [W], 0.00000
 Component Sizing Information, Controller:OutdoorAir, ZONE OFFICE WHOLEBUILDING - SM OFFICE 2 C  - STORY GROUND PSZ-AC OA SYSTEM CONTROLLER, Maximum Outdoor Air Flow Rate [m3/s], 0.28102
 Component Sizing Information, Controller:OutdoorAir, ZONE OFFICE WHOLEBUILDING - SM OFFICE 2 C  - STORY GROUND PSZ-AC OA SYSTEM CONTROLLER, Minimum Outdoor Air Flow Rate [m3/s], 5.61956E-002
 Component Sizing Information, AirLoopHVAC:UnitarySystem, ZONE OFFICE WHOLEBUILDING - SM OFFICE 2 C  - STORY GROUND PSZ-AC UNITARY AC, Design Size Supply Air Flow Rate [m3/s], 0.28102
 Component Sizing Information, AirLoopHVAC:UnitarySystem, ZONE OFFICE WHOLEBUILDING - SM OFFICE 2 C  - STORY GROUND PSZ-AC UNITARY AC, Design Size Heating Supply Air Flow Rate [m3/s], 0.28102
 Component Sizing Information, AirLoopHVAC:UnitarySystem, ZONE OFFICE WHOLEBUILDING - SM OFFICE 2 C  - STORY GROUND PSZ-AC UNITARY AC, Design Size Cooling Supply Air Flow Rate [m3/s], 0.28102
 Component Sizing Information, AirLoopHVAC:UnitarySystem, ZONE OFFICE WHOLEBUILDING - SM OFFICE 2 C  - STORY GROUND PSZ-AC UNITARY AC, User-Specified No Load Supply Air Flow Rate [m3/s], 0.00000
[...]
 Warmup Convergence Information,ZONE OFFICE WHOLEBUILDING - SM OFFICE 2 B END_A - STORY GROUND,SizingPeriod: KODIAK NOVEMBER .4% CONDNS DB=>MCWB,2.1963621438E-002,1.2431465284E-002,Pass,Pass,6.3989480272E-003,4.4708116635E-003,Pass,Pass
 Warmup Convergence Information,ZONE OFFICE WHOLEBUILDING - SM OFFICE 2 B END_B - STORY GROUND,SizingPeriod: KODIAK NOVEMBER .4% CONDNS DB=>MCWB,1.9426654404E-002,1.3590994107E-002,Pass,Pass,6.1334323293E-003,4.1313974326E-003,Pass,Pass
 Warmup Convergence Information,ZONE OFFICE WHOLEBUILDING - SM OFFICE 2 C  - STORY GROUND,SizingPeriod: KODIAK NOVEMBER .4% CONDNS DB=>MCWB,1.8006454230E-002,9.8218109172E-003,Pass,Pass,5.5787212843E-003,3.7679062235E-003,Pass,Pass
 Warmup Convergence Information,ZONE OFFICE WHOLEBUILDING - SM OFFICE 2 C END_A - STORY GROUND,SizingPeriod: KODIAK NOVEMBER .4% CONDNS DB=>MCWB,2.3542435427E-002,1.2134824931E-002,Pass,Pass,8.9204602253E-003,6.1999413312E-003,Pass,Pass
 Warmup Convergence Information,ZONE OFFICE WHOLEBUILDING - SM OFFICE 2 C END_B - STORY GROUND,SizingPeriod: KODIAK NOVEMBER .4% CONDNS DB=>MCWB,2.0796517518E-002,1.4689662556E-002,Pass,Pass,8.6862870178E-003,5.8774855982E-003,Pass,Pass
Environment,KODIAK NOVEMBER .4% CONDNS WB=>MCDB,SizingPeriod:DesignDay,11/21,11/21,SummerDesignDay,1,N/A,N/A,N/A,N/A,N/A,N/A,Clark and Allen
Environment:Daylight Saving,No,SizingPeriod:DesignDay
Environment:Design Day Data,8.70,5.30,DefaultMultipliers,Wetbulb,8.20,{C},100917,320,5.0,0.00,No,No
Environment:Design Day Misc,325,1220.2,0.1488,6.4032E-002,1.0,14.25,-19.7,ASHRAETau
Environment:WarmupDays,  6
 Warmup Convergence Information,ZONE OFFICE WHOLEBUILDING - SM OFFICE 2 A  - STORY GROUND,SizingPeriod: KODIAK NOVEMBER .4% CONDNS WB=>MCDB,2.8302113161E-002,2.3566115480E-002,Pass,Pass,6.7364583648E-003,1.1240914647E-002,Pass,Pass
 Warmup Convergence Information,ZONE OFFICE WHOLEBUILDING - SM OFFICE 2 A END_A - STORY GROUND,SizingPeriod: KODIAK NOVEMBER .4% CONDNS WB=>MCDB,3.4028678758E-002,2.4332178249E-002,Pass,Pass,7.3794042202E-003,6.2135494982E-003,Pass,Pass
 Warmup Convergence Information,ZONE OFFICE WHOLEBUILDING - SM OFFICE 2 A END_B - STORY GROUND,SizingPeriod: KODIAK NOVEMBER .4% CONDNS WB=>MCDB,3.2612515667E-002,2.5351912024E-002,Pass,Pass,7.0932483408E-003,5.9068016103E-003,Pass,Pass
 Warmup Convergence Information,ZONE OFFICE WHOLEBUILDING - SM OFFICE 2 B  - STORY GROUND,SizingPeriod: KODIAK NOVEMBER .4% CONDNS WB=>MCDB,3.7520564007E-003,5.7241676585E-003,Pass,Pass,5.2352432601E-003,6.8965875403E-003,Pass,Pass
 Warmup Convergence Information,ZONE OFFICE WHOLEBUILDING - SM OFFICE 2 B END_A - STORY GROUND,SizingPeriod: KODIAK NOVEMBER .4% CONDNS WB=>MCDB,2.2141556236E-002,1.2406114373E-002,Pass,Pass,6.0947088175E-003,4.2244505791E-003,Pass,Pass
 Warmup Convergence Information,ZONE OFFICE WHOLEBUILDING - SM OFFICE 2 B END_B - STORY GROUND,SizingPeriod: KODIAK NOVEMBER .4% CONDNS WB=>MCDB,1.9551652042E-002,1.3628512841E-002,Pass,Pass,5.8372397607E-003,3.9204794748E-003,Pass,Pass
 Warmup Convergence Information,ZONE OFFICE WHOLEBUILDING - SM OFFICE 2 C  - STORY GROUND,SizingPeriod: KODIAK NOVEMBER .4% CONDNS WB=>MCDB,1.8113642832E-002,9.8253170709E-003,Pass,Pass,5.3403350594E-003,3.5831577009E-003,Pass,Pass
 Warmup Convergence Information,ZONE OFFICE WHOLEBUILDING - SM OFFICE 2 C END_A - STORY GROUND,SizingPeriod: KODIAK NOVEMBER .4% CONDNS WB=>MCDB,2.3568923417E-002,1.2134645472E-002,Pass,Pass,8.4475240489E-003,5.8532109722E-003,Pass,Pass
 Warmup Convergence Information,ZONE OFFICE WHOLEBUILDING - SM OFFICE 2 C END_B - STORY GROUND,SizingPeriod: KODIAK NOVEMBER .4% CONDNS WB=>MCDB,2.0803472581E-002,1.4629165576E-002,Pass,Pass,8.2280917041E-003,5.5541831818E-003,Pass,Pass
Environment,KODIAK OCTOBER .4% CONDNS DB=>MCWB,SizingPeriod:DesignDay,10/21,10/21,SummerDesignDay,1,N/A,N/A,N/A,N/A,N/A,N/A,Clark and Allen
Environment:Daylight Saving,No,SizingPeriod:DesignDay
Environment:Design Day Data,12.60,6.20,DefaultMultipliers,Wetbulb,9.40,{C},100917,320,5.0,0.00,No,No
Environment:Design Day Misc,294,1191.2,0.1597,7.3069E-002,1.0,15.18,-10.4,ASHRAETau
Environment:WarmupDays,  6
 Warmup Convergence Information,ZONE OFFICE WHOLEBUILDING - SM OFFICE 2 A  - STORY GROUND,SizingPeriod: KODIAK OCTOBER .4% CONDNS DB=>MCWB,3.3978023049E-006,3.6132550126E-006,Pass,Pass,1.7975697813E-002,1.3624929699E-002,Pass,Pass
 Warmup Convergence Information,ZONE OFFICE WHOLEBUILDING - SM OFFICE 2 A END_A - STORY GROUND,SizingPeriod: KODIAK OCTOBER .4% CONDNS DB=>MCWB,2.1814510454E-002,2.4473809174E-002,Pass,Pass,2.8982074222E-002,5.2893231124E-002,Pass,Pass
 Warmup Convergence Information,ZONE OFFICE WHOLEBUILDING - SM OFFICE 2 A END_B - STORY GROUND,SizingPeriod: KODIAK OCTOBER .4% CONDNS DB=>MCWB,2.1943677417E-002,3.0005310558E-002,Pass,Pass,2.4751129218E-002,4.8728115661E-002,Pass,Pass
 Warmup Convergence Information,ZONE OFFICE WHOLEBUILDING - SM OFFICE 2 B  - STORY GROUND,SizingPeriod: KODIAK OCTOBER .4% CONDNS DB=>MCWB,7.1199338788E-007,6.0586225976E-007,Pass,Pass,4.0431384042E-003,3.3527436095E-003,Pass,Pass
 Warmup Convergence Information,ZONE OFFICE WHOLEBUILDING - SM OFFICE 2 B END_A - STORY GROUND,SizingPeriod: KODIAK OCTOBER .4% CONDNS DB=>MCWB,1.0928935530E-002,1.2862278014E-002,Pass,Pass,1.8879413783E-002,2.2883869534E-002,Pass,Pass
 Warmup Convergence Information,ZONE OFFICE WHOLEBUILDING - SM OFFICE 2 B END_B - STORY GROUND,SizingPeriod: KODIAK OCTOBER .4% CONDNS DB=>MCWB,1.1396784915E-002,1.9402763164E-002,Pass,Pass,1.2544881732E-002,2.0890985504E-002,Pass,Pass
 Warmup Convergence Information,ZONE OFFICE WHOLEBUILDING - SM OFFICE 2 C  - STORY GROUND,SizingPeriod: KODIAK OCTOBER .4% CONDNS DB=>MCWB,1.8524305126E-002,1.5912935203E-002,Pass,Pass,1.0667387191E-002,1.3739325356E-002,Pass,Pass
 Warmup Convergence Information,ZONE OFFICE WHOLEBUILDING - SM OFFICE 2 C END_A - STORY GROUND,SizingPeriod: KODIAK OCTOBER .4% CONDNS DB=>MCWB,3.1029943734E-002,1.8965513753E-002,Pass,Pass,1.0876114213E-002,7.3540735448E-003,Pass,Pass
 Warmup Convergence Information,ZONE OFFICE WHOLEBUILDING - SM OFFICE 2 C END_B - STORY GROUND,SizingPeriod: KODIAK OCTOBER .4% CONDNS DB=>MCWB,2.7294530733E-002,2.2479904113E-002,Pass,Pass,1.0234395699E-002,6.8054439795E-003,Pass,Pass
Environment,KODIAK OCTOBER .4% CONDNS WB=>MCDB,SizingPeriod:DesignDay,10/21,10/21,SummerDesignDay,1,N/A,N/A,N/A,N/A,N/A,N/A,Clark and Allen
Environment:Daylight Saving,No,SizingPeriod:DesignDay
Environment:Design Day Data,11.30,6.20,DefaultMultipliers,Wetbulb,10.70,{C},100917,320,5.0,0.00,No,No
Environment:Design Day Misc,294,1191.2,0.1597,7.3069E-002,1.0,15.18,-10.4,ASHRAETau
Environment:WarmupDays,  6
 Warmup Convergence Information,ZONE OFFICE WHOLEBUILDING - SM OFFICE 2 A  - STORY GROUND,SizingPeriod: KODIAK OCTOBER .4% CONDNS WB=>MCDB,4.8884850042E-003,1.0468533591E-002,Pass,Pass,1.7838696228E-002,2.0690374410E-002,Pass,Pass
 Warmup Convergence Information,ZONE OFFICE WHOLEBUILDING - SM OFFICE 2 A END_A - STORY GROUND,SizingPeriod: KODIAK OCTOBER .4% CONDNS WB=>MCDB,2.9542749684E-002,2.6864377906E-002,Pass,Pass,2.4063788454E-002,5.4196805846E-002,Pass,Pass
 Warmup Convergence Information,ZONE OFFICE WHOLEBUILDING - SM OFFICE 2 A END_B - STORY GROUND,SizingPeriod: KODIAK OCTOBER .4% CONDNS WB=>MCDB,2.9537560829E-002,3.2350369531E-002,Pass,Pass,1.9448864712E-002,3.4186353125E-002,Pass,Pass
 Warmup Convergence Information,ZONE OFFICE WHOLEBUILDING - SM OFFICE 2 B  - STORY GROUND,SizingPeriod: KODIAK OCTOBER .4% CONDNS WB=>MCDB,4.0880462592E-006,3.0124497844E-006,Pass,Pass,4.4258628132E-003,3.5375321639E-003,Pass,Pass
 Warmup Convergence Information,ZONE OFFICE WHOLEBUILDING - SM OFFICE 2 B END_A - STORY GROUND,SizingPeriod: KODIAK OCTOBER .4% CONDNS WB=>MCDB,1.7744545723E-002,1.5245814511E-002,Pass,Pass,1.6677463360E-002,2.7975365756E-002,Pass,Pass
 Warmup Convergence Information,ZONE OFFICE WHOLEBUILDING - SM OFFICE 2 B END_B - STORY GROUND,SizingPeriod: KODIAK OCTOBER .4% CONDNS WB=>MCDB,1.8045149347E-002,2.2378049157E-002,Pass,Pass,1.1054537891E-002,1.9897644175E-002,Pass,Pass
 Warmup Convergence Information,ZONE OFFICE WHOLEBUILDING - SM OFFICE 2 C  - STORY GROUND,SizingPeriod: KODIAK OCTOBER .4% CONDNS WB=>MCDB,2.3235685814E-002,1.4133721506E-002,Pass,Pass,6.3556758407E-003,4.0899867864E-003,Pass,Pass
 Warmup Convergence Information,ZONE OFFICE WHOLEBUILDING - SM OFFICE 2 C END_A - STORY GROUND,SizingPeriod: KODIAK OCTOBER .4% CONDNS WB=>MCDB,3.1742469344E-002,1.9103695970E-002,Pass,Pass,9.6269590584E-003,6.4849459322E-003,Pass,Pass
 Warmup Convergence Information,ZONE OFFICE WHOLEBUILDING - SM OFFICE 2 C END_B - STORY GROUND,SizingPeriod: KODIAK OCTOBER .4% CONDNS WB=>MCDB,2.7820272450E-002,2.2209380994E-002,Pass,Pass,8.9128691160E-003,5.8564545547E-003,Pass,Pass
Environment,KODIAK SEPTEMBER .4% CONDNS DB=>MCWB,SizingPeriod:DesignDay,09/21,09/21,SummerDesignDay,1,N/A,N/A,N/A,N/A,N/A,N/A,Clark and Allen
Environment:Daylight Saving,No,SizingPeriod:DesignDay
Environment:Design Day Data,18.00,6.40,DefaultMultipliers,Wetbulb,12.50,{C},100917,320,5.0,0.00,No,No
Environment:Design Day Misc,264,1151.1,0.1777,9.2179E-002,1.0,6.63,1.0,ASHRAETau
Environment:WarmupDays,  6
 Warmup Convergence Information,ZONE OFFICE WHOLEBUILDING - SM OFFICE 2 A  - STORY GROUND,SizingPeriod: KODIAK SEPTEMBER .4% CONDNS DB=>MCWB,2.2486644939E-006,1.9377009390E-006,Pass,Pass,1.1885444961E-002,8.1291311229E-003,Pass,Pass
 Warmup Convergence Information,ZONE OFFICE WHOLEBUILDING - SM OFFICE 2 A END_A - STORY GROUND,SizingPeriod: KODIAK SEPTEMBER .4% CONDNS DB=>MCWB,2.8064169735E-006,2.5241413230E-006,Pass,Pass,2.3215323257E-002,1.5689299306E-002,Pass,Pass
 Warmup Convergence Information,ZONE OFFICE WHOLEBUILDING - SM OFFICE 2 A END_B - STORY GROUND,SizingPeriod: KODIAK SEPTEMBER .4% CONDNS DB=>MCWB,3.4208716180E-006,4.5673813513E-006,Pass,Pass,2.2973780053E-002,2.0382549725E-002,Pass,Pass
 Warmup Convergence Information,ZONE OFFICE WHOLEBUILDING - SM OFFICE 2 B  - STORY GROUND,SizingPeriod: KODIAK SEPTEMBER .4% CONDNS DB=>MCWB,1.9213256503E-006,1.3413436043E-006,Pass,Pass,4.1225402763E-003,3.2414920950E-003,Pass,Pass
 Warmup Convergence Information,ZONE OFFICE WHOLEBUILDING - SM OFFICE 2 B END_A - STORY GROUND,SizingPeriod: KODIAK SEPTEMBER .4% CONDNS DB=>MCWB,1.1480345183E-006,8.8098774477E-007,Pass,Pass,1.2161442147E-002,1.0515381082E-002,Pass,Pass
 Warmup Convergence Information,ZONE OFFICE WHOLEBUILDING - SM OFFICE 2 B END_B - STORY GROUND,SizingPeriod: KODIAK SEPTEMBER .4% CONDNS DB=>MCWB,2.1587273834E-006,3.1806892336E-006,Pass,Pass,1.1479431261E-002,1.2776613254E-002,Pass,Pass
 Warmup Convergence Information,ZONE OFFICE WHOLEBUILDING - SM OFFICE 2 C  - STORY GROUND,SizingPeriod: KODIAK SEPTEMBER .4% CONDNS DB=>MCWB,1.9038876751E-006,1.7377862188E-006,Pass,Pass,1.1381098229E-002,7.9502609179E-003,Pass,Pass
 Warmup Convergence Information,ZONE OFFICE WHOLEBUILDING - SM OFFICE 2 C END_A - STORY GROUND,SizingPeriod: KODIAK SEPTEMBER .4% CONDNS DB=>MCWB,4.7662281060E-003,9.1990514440E-003,Pass,Pass,3.1789299956E-002,3.9839815944E-002,Pass,Pass
 Warmup Convergence Information,ZONE OFFICE WHOLEBUILDING - SM OFFICE 2 C END_B - STORY GROUND,SizingPeriod: KODIAK SEPTEMBER .4% CONDNS DB=>MCWB,5.5833119486E-003,1.4307289495E-002,Pass,Pass,2.5037102424E-002,4.6818016319E-002,Pass,Pass
Environment,KODIAK SEPTEMBER .4% CONDNS WB=>MCDB,SizingPeriod:DesignDay,09/21,09/21,SummerDesignDay,1,N/A,N/A,N/A,N/A,N/A,N/A,Clark and Allen
Environment:Daylight Saving,No,SizingPeriod:DesignDay
Environment:Design Day Data,16.20,6.40,DefaultMultipliers,Wetbulb,13.80,{C},100917,320,5.0,0.00,No,No
Environment:Design Day Misc,264,1151.1,0.1777,9.2179E-002,1.0,6.63,1.0,ASHRAETau
Environment:WarmupDays,  6
 Warmup Convergence Information,ZONE OFFICE WHOLEBUILDING - SM OFFICE 2 A  - STORY GROUND,SizingPeriod: KODIAK SEPTEMBER .4% CONDNS WB=>MCDB,1.6402999177E-005,7.5736988527E-005,Pass,Pass,1.3034238355E-002,8.8026576176E-003,Pass,Pass
 Warmup Convergence Information,ZONE OFFICE WHOLEBUILDING - SM OFFICE 2 A END_A - STORY GROUND,SizingPeriod: KODIAK SEPTEMBER .4% CONDNS WB=>MCDB,2.4718458156E-004,1.0400825868E-003,Pass,Pass,3.1119263358E-002,2.1480067229E-002,Pass,Pass
 Warmup Convergence Information,ZONE OFFICE WHOLEBUILDING - SM OFFICE 2 A END_B - STORY GROUND,SizingPeriod: KODIAK SEPTEMBER .4% CONDNS WB=>MCDB,8.5851813285E-004,3.5351107279E-003,Pass,Pass,2.9000544958E-002,3.1452204303E-002,Pass,Pass
 Warmup Convergence Information,ZONE OFFICE WHOLEBUILDING - SM OFFICE 2 B  - STORY GROUND,SizingPeriod: KODIAK SEPTEMBER .4% CONDNS WB=>MCDB,2.5777121017E-006,1.4944069659E-006,Pass,Pass,4.2503780477E-003,3.3051829665E-003,Pass,Pass
 Warmup Convergence Information,ZONE OFFICE WHOLEBUILDING - SM OFFICE 2 B END_A - STORY GROUND,SizingPeriod: KODIAK SEPTEMBER .4% CONDNS WB=>MCDB,1.2587301261E-005,6.8634325967E-005,Pass,Pass,1.4019395177E-002,1.1648703933E-002,Pass,Pass
 Warmup Convergence Information,ZONE OFFICE WHOLEBUILDING - SM OFFICE 2 B END_B - STORY GROUND,SizingPeriod: KODIAK SEPTEMBER .4% CONDNS WB=>MCDB,1.2815339716E-005,6.7995707293E-005,Pass,Pass,1.3261933154E-002,1.4602317430E-002,Pass,Pass
 Warmup Convergence Information,ZONE OFFICE WHOLEBUILDING - SM OFFICE 2 C  - STORY GROUND,SizingPeriod: KODIAK SEPTEMBER .4% CONDNS WB=>MCDB,6.0587252699E-006,2.4620980368E-005,Pass,Pass,1.3870319006E-002,9.4429008172E-003,Pass,Pass
 Warmup Convergence Information,ZONE OFFICE WHOLEBUILDING - SM OFFICE 2 C END_A - STORY GROUND,SizingPeriod: KODIAK SEPTEMBER .4% CONDNS WB=>MCDB,1.2523019168E-002,1.5450512542E-002,Pass,Pass,3.2353519658E-002,4.6764669605E-002,Pass,Pass
 Warmup Convergence Information,ZONE OFFICE WHOLEBUILDING - SM OFFICE 2 C END_B - STORY GROUND,SizingPeriod: KODIAK SEPTEMBER .4% CONDNS WB=>MCDB,1.3272024046E-002,2.2790828513E-002,Pass,Pass,2.2829117338E-002,3.6374244195E-002,Pass,Pass
Environment,KODIAK ANN CLG .4% CONDNS DB=>MWB HVAC Sizing Pass 1,SizingPeriod:DesignDay,08/21,08/21,SummerDesignDay,1,N/A,N/A,N/A,N/A,N/A,N/A,Clark and Allen
Environment:Daylight Saving,No,SizingPeriod:DesignDay
Environment,KODIAK ANN CLG .4% CONDNS WB=>MDB HVAC Sizing Pass 1,SizingPeriod:DesignDay,08/21,08/21,SummerDesignDay,1,N/A,N/A,N/A,N/A,N/A,N/A,Clark and Allen
Environment:Daylight Saving,No,SizingPeriod:DesignDay
Environment,KODIAK ANN HTG 99.6% CONDNS DB HVAC Sizing Pass 1,SizingPeriod:DesignDay,01/21,01/21,WinterDesignDay,1,N/A,N/A,N/A,N/A,N/A,N/A,Clark and Allen
Environment:Daylight Saving,No,SizingPeriod:DesignDay
Environment,KODIAK APRIL .4% CONDNS DB=>MCWB HVAC Sizing Pass 1,SizingPeriod:DesignDay,04/21,04/21,SummerDesignDay,1,N/A,N/A,N/A,N/A,N/A,N/A,Clark and Allen
Environment:Daylight Saving,No,SizingPeriod:DesignDay
Environment,KODIAK APRIL .4% CONDNS WB=>MCDB HVAC Sizing Pass 1,SizingPeriod:DesignDay,04/21,04/21,SummerDesignDay,1,N/A,N/A,N/A,N/A,N/A,N/A,Clark and Allen
Environment:Daylight Saving,No,SizingPeriod:DesignDay
Environment,KODIAK AUGUST .4% CONDNS DB=>MCWB HVAC Sizing Pass 1,SizingPeriod:DesignDay,08/21,08/21,SummerDesignDay,1,N/A,N/A,N/A,N/A,N/A,N/A,Clark and Allen
Environment:Daylight Saving,No,SizingPeriod:DesignDay
Environment,KODIAK AUGUST .4% CONDNS WB=>MCDB HVAC Sizing Pass 1,SizingPeriod:DesignDay,08/21,08/21,SummerDesignDay,1,N/A,N/A,N/A,N/A,N/A,N/A,Clark and Allen
Environment:Daylight Saving,No,SizingPeriod:DesignDay
Environment,KODIAK DECEMBER .4% CONDNS DB=>MCWB HVAC Sizing Pass 1,SizingPeriod:DesignDay,12/21,12/21,SummerDesignDay,1,N/A,N/A,N/A,N/A,N/A,N/A,Clark and Allen
Environment:Daylight Saving,No,SizingPeriod:DesignDay
Environment,KODIAK DECEMBER .4% CONDNS WB=>MCDB HVAC Sizing Pass 1,SizingPeriod:DesignDay,12/21,12/21,SummerDesignDay,1,N/A,N/A,N/A,N/A,N/A,N/A,Clark and Allen
Environment:Daylight Saving,No,SizingPeriod:DesignDay
Environment,KODIAK FEBRUARY .4% CONDNS DB=>MCWB HVAC Sizing Pass 1,SizingPeriod:DesignDay,02/21,02/21,SummerDesignDay,1,N/A,N/A,N/A,N/A,N/A,N/A,Clark and Allen
Environment:Daylight Saving,No,SizingPeriod:DesignDay
Environment,KODIAK FEBRUARY .4% CONDNS WB=>MCDB HVAC Sizing Pass 1,SizingPeriod:DesignDay,02/21,02/21,SummerDesignDay,1,N/A,N/A,N/A,N/A,N/A,N/A,Clark and Allen
Environment:Daylight Saving,No,SizingPeriod:DesignDay
Environment,KODIAK JANUARY .4% CONDNS DB=>MCWB HVAC Sizing Pass 1,SizingPeriod:DesignDay,01/21,01/21,SummerDesignDay,1,N/A,N/A,N/A,N/A,N/A,N/A,Clark and Allen
Environment:Daylight Saving,No,SizingPeriod:DesignDay
Environment,KODIAK JANUARY .4% CONDNS WB=>MCDB HVAC Sizing Pass 1,SizingPeriod:DesignDay,01/21,01/21,SummerDesignDay,1,N/A,N/A,N/A,N/A,N/A,N/A,Clark and Allen
Environment:Daylight Saving,No,SizingPeriod:DesignDay
Environment,KODIAK JULY .4% CONDNS DB=>MCWB HVAC Sizing Pass 1,SizingPeriod:DesignDay,07/21,07/21,SummerDesignDay,1,N/A,N/A,N/A,N/A,N/A,N/A,Clark and Allen
Environment:Daylight Saving,No,SizingPeriod:DesignDay
Environment,KODIAK JULY .4% CONDNS WB=>MCDB HVAC Sizing Pass 1,SizingPeriod:DesignDay,07/21,07/21,SummerDesignDay,1,N/A,N/A,N/A,N/A,N/A,N/A,Clark and Allen
Environment:Daylight Saving,No,SizingPeriod:DesignDay
Environment,KODIAK JUNE .4% CONDNS DB=>MCWB HVAC Sizing Pass 1,SizingPeriod:DesignDay,06/21,06/21,SummerDesignDay,1,N/A,N/A,N/A,N/A,N/A,N/A,Clark and Allen
Environment:Daylight Saving,No,SizingPeriod:DesignDay
Environment,KODIAK JUNE .4% CONDNS WB=>MCDB HVAC Sizing Pass 1,SizingPeriod:DesignDay,06/21,06/21,SummerDesignDay,1,N/A,N/A,N/A,N/A,N/A,N/A,Clark and Allen
Environment:Daylight Saving,No,SizingPeriod:DesignDay
Environment,KODIAK MARCH .4% CONDNS DB=>MCWB HVAC Sizing Pass 1,SizingPeriod:DesignDay,03/21,03/21,SummerDesignDay,1,N/A,N/A,N/A,N/A,N/A,N/A,Clark and Allen
Environment:Daylight Saving,No,SizingPeriod:DesignDay
Environment,KODIAK MARCH .4% CONDNS WB=>MCDB HVAC Sizing Pass 1,SizingPeriod:DesignDay,03/21,03/21,SummerDesignDay,1,N/A,N/A,N/A,N/A,N/A,N/A,Clark and Allen
Environment:Daylight Saving,No,SizingPeriod:DesignDay
Environment,KODIAK MAY .4% CONDNS DB=>MCWB HVAC Sizing Pass 1,SizingPeriod:DesignDay,05/21,05/21,SummerDesignDay,1,N/A,N/A,N/A,N/A,N/A,N/A,Clark and Allen
Environment:Daylight Saving,No,SizingPeriod:DesignDay
Environment,KODIAK MAY .4% CONDNS WB=>MCDB HVAC Sizing Pass 1,SizingPeriod:DesignDay,05/21,05/21,SummerDesignDay,1,N/A,N/A,N/A,N/A,N/A,N/A,Clark and Allen
Environment:Daylight Saving,No,SizingPeriod:DesignDay
Environment,KODIAK NOVEMBER .4% CONDNS DB=>MCWB HVAC Sizing Pass 1,SizingPeriod:DesignDay,11/21,11/21,SummerDesignDay,1,N/A,N/A,N/A,N/A,N/A,N/A,Clark and Allen
Environment:Daylight Saving,No,SizingPeriod:DesignDay
Environment,KODIAK NOVEMBER .4% CONDNS WB=>MCDB HVAC Sizing Pass 1,SizingPeriod:DesignDay,11/21,11/21,SummerDesignDay,1,N/A,N/A,N/A,N/A,N/A,N/A,Clark and Allen
Environment:Daylight Saving,No,SizingPeriod:DesignDay
Environment,KODIAK OCTOBER .4% CONDNS DB=>MCWB HVAC Sizing Pass 1,SizingPeriod:DesignDay,10/21,10/21,SummerDesignDay,1,N/A,N/A,N/A,N/A,N/A,N/A,Clark and Allen
Environment:Daylight Saving,No,SizingPeriod:DesignDay
Environment,KODIAK OCTOBER .4% CONDNS WB=>MCDB HVAC Sizing Pass 1,SizingPeriod:DesignDay,10/21,10/21,SummerDesignDay,1,N/A,N/A,N/A,N/A,N/A,N/A,Clark and Allen
Environment:Daylight Saving,No,SizingPeriod:DesignDay
Environment,KODIAK SEPTEMBER .4% CONDNS DB=>MCWB HVAC Sizing Pass 1,SizingPeriod:DesignDay,09/21,09/21,SummerDesignDay,1,N/A,N/A,N/A,N/A,N/A,N/A,Clark and Allen
Environment:Daylight Saving,No,SizingPeriod:DesignDay
Environment,KODIAK SEPTEMBER .4% CONDNS WB=>MCDB HVAC Sizing Pass 1,SizingPeriod:DesignDay,09/21,09/21,SummerDesignDay,1,N/A,N/A,N/A,N/A,N/A,N/A,Clark and Allen
Environment:Daylight Saving,No,SizingPeriod:DesignDay
! <Program Control Information:Threads/Parallel Sims>, Threading Supported,Maximum Number of Threads, Env Set Threads (OMP_NUM_THREADS), EP Env Set Threads (EP_OMP_NUM_THREADS), IDF Set Threads, Number of Threads Used (Interior Radiant Exchange), Number Nominal Surfaces, Number Parallel Sims
Program Control:Threads/Parallel Sims, No,1, N/A, N/A, N/A, N/A, N/A, N/A
End of Data
