Program Version,EnergyPlus, Version 22.2.0-aa78da9668, YMD=2023.04.03 14:43,
   ************* Beginning Zone Sizing Calculations
   ** Warning ** ProcessScheduleInput: Schedule:Constant="ALWAYS ON CONTINUOUS", Blank Schedule Type Limits Name input -- will not be validated.
   ** Warning ** CheckUsedConstructions: There are 11 nominally unused constructions in input.
   **   ~~~   ** For explicit details on each unused construction, use Output:Diagnostics,DisplayExtraWarnings;
   ** Warning ** GetInternalHeatGains: People="WAREHOUSE OFFICE PEOPLE" has comfort related schedules but no thermal comfort model selected.
   **   ~~~   ** If schedules are specified for air velocity, clothing insulation, and/or work efficiency but no thermal comfort
   **   ~~~   ** thermal comfort model is selected, the schedules will be listed as unused schedules in the .err file.
   **   ~~~   ** To avoid these errors, select a valid thermal comfort model or eliminate these schedules in the PEOPLE input.
   ** Warning ** GetInternalHeatGains: People="WAREHOUSE OFFICE PEOPLE" has comfort related schedules but no thermal comfort model selected.
   **   ~~~   ** If schedules are specified for air velocity, clothing insulation, and/or work efficiency but no thermal comfort
   **   ~~~   ** thermal comfort model is selected, the schedules will be listed as unused schedules in the .err file.
   **   ~~~   ** To avoid these errors, select a valid thermal comfort model or eliminate these schedules in the PEOPLE input.
   ** Warning ** GetInternalHeatGains: People="WAREHOUSE OFFICE PEOPLE" has comfort related schedules but no thermal comfort model selected.
   **   ~~~   ** If schedules are specified for air velocity, clothing insulation, and/or work efficiency but no thermal comfort
   **   ~~~   ** thermal comfort model is selected, the schedules will be listed as unused schedules in the .err file.
   **   ~~~   ** To avoid these errors, select a valid thermal comfort model or eliminate these schedules in the PEOPLE input.
   ** Severe  ** WaterHeater:Mixed = 40GAL ELECTRICITY WATER HEATER - 40KBTU/HR 1.0 THERM EFF 1.0 THERM EFF:  Ambient Temperature Zone not found = 
   ** Warning ** Calculated design cooling load for zone=ZONE WAREHOUSE BULK A  - STORY GROUND is zero.
   **   ~~~   ** Check Sizing:Zone and ZoneControl:Thermostat inputs.
   ** Warning ** Calculated design cooling load for zone=ZONE WAREHOUSE BULK A END_A - STORY GROUND is zero.
   **   ~~~   ** Check Sizing:Zone and ZoneControl:Thermostat inputs.
   ** Warning ** Calculated design cooling load for zone=ZONE WAREHOUSE BULK B  - STORY GROUND is zero.
   **   ~~~   ** Check Sizing:Zone and ZoneControl:Thermostat inputs.
   ** Warning ** Calculated design cooling load for zone=ZONE WAREHOUSE BULK B END_A - STORY GROUND is zero.
   **   ~~~   ** Check Sizing:Zone and ZoneControl:Thermostat inputs.
   ** Warning ** Calculated design cooling load for zone=ZONE WAREHOUSE BULK C  - STORY GROUND is zero.
   **   ~~~   ** Check Sizing:Zone and ZoneControl:Thermostat inputs.
   ** Warning ** Calculated design cooling load for zone=ZONE WAREHOUSE BULK C END_A - STORY GROUND is zero.
   **   ~~~   ** Check Sizing:Zone and ZoneControl:Thermostat inputs.
   ************* Beginning System Sizing Calculations
   ** Warning ** GetDXCoils: Coil:Cooling:DX:SingleSpeed="ZONE WAREHOUSE FINE A  - STORY GROUND PSZ-AC 1SPD DX AC CLG COIL 3KBTU/HR 13.0SEER", invalid
   **   ~~~   ** ...Part Load Fraction Correlation Curve Name = COILCLGDXEIRRATIO_FQFRAC has out of range value.
   **   ~~~   ** ...Curve maximum must be <= 1.0, curve max at PLR = 0.99 is 1.018
   **   ~~~   ** ...Setting curve maximum to 1.0 and simulation continues.
   ** Warning ** AirLoopHVAC:UnitarySystem = ZONE WAREHOUSE FINE A  - STORY GROUND PSZ-AC UNITARY AC
   **   ~~~   ** Method used to determine the cooling supply air flow rate is not specified when cooling coil is present.
   ** Warning ** AirLoopHVAC:UnitarySystem = ZONE WAREHOUSE FINE A  - STORY GROUND PSZ-AC UNITARY AC
   **   ~~~   ** Method used to determine the heating supply air flow rate is not specified when heating coil is present.
   ** Warning ** AirLoopHVAC:UnitarySystem = ZONE WAREHOUSE FINE A END_B - STORY GROUND PSZ-AC UNITARY AC
   **   ~~~   ** Method used to determine the cooling supply air flow rate is not specified when cooling coil is present.
   ** Warning ** AirLoopHVAC:UnitarySystem = ZONE WAREHOUSE FINE A END_B - STORY GROUND PSZ-AC UNITARY AC
   **   ~~~   ** Method used to determine the heating supply air flow rate is not specified when heating coil is present.
   ** Warning ** AirLoopHVAC:UnitarySystem = ZONE WAREHOUSE FINE B  - STORY GROUND PSZ-AC UNITARY AC
   **   ~~~   ** Method used to determine the cooling supply air flow rate is not specified when cooling coil is present.
   ** Warning ** AirLoopHVAC:UnitarySystem = ZONE WAREHOUSE FINE B  - STORY GROUND PSZ-AC UNITARY AC
   **   ~~~   ** Method used to determine the heating supply air flow rate is not specified when heating coil is present.
   ** Warning ** AirLoopHVAC:UnitarySystem = ZONE WAREHOUSE FINE B END_B - STORY GROUND PSZ-AC UNITARY AC
   **   ~~~   ** Method used to determine the cooling supply air flow rate is not specified when cooling coil is present.
   ** Warning ** AirLoopHVAC:UnitarySystem = ZONE WAREHOUSE FINE B END_B - STORY GROUND PSZ-AC UNITARY AC
   **   ~~~   ** Method used to determine the heating supply air flow rate is not specified when heating coil is present.
   ** Warning ** AirLoopHVAC:UnitarySystem = ZONE WAREHOUSE FINE C  - STORY GROUND PSZ-AC UNITARY AC
   **   ~~~   ** Method used to determine the cooling supply air flow rate is not specified when cooling coil is present.
   ** Warning ** AirLoopHVAC:UnitarySystem = ZONE WAREHOUSE FINE C  - STORY GROUND PSZ-AC UNITARY AC
   **   ~~~   ** Method used to determine the heating supply air flow rate is not specified when heating coil is present.
   ** Warning ** AirLoopHVAC:UnitarySystem = ZONE WAREHOUSE FINE C END_B - STORY GROUND PSZ-AC UNITARY AC
   **   ~~~   ** Method used to determine the cooling supply air flow rate is not specified when cooling coil is present.
   ** Warning ** AirLoopHVAC:UnitarySystem = ZONE WAREHOUSE FINE C END_B - STORY GROUND PSZ-AC UNITARY AC
   **   ~~~   ** Method used to determine the heating supply air flow rate is not specified when heating coil is present.
   ** Warning ** AirLoopHVAC:UnitarySystem = ZONE WAREHOUSE OFFICE A  - STORY GROUND PSZ-AC UNITARY AC
   **   ~~~   ** Method used to determine the cooling supply air flow rate is not specified when cooling coil is present.
   ** Warning ** AirLoopHVAC:UnitarySystem = ZONE WAREHOUSE OFFICE A  - STORY GROUND PSZ-AC UNITARY AC
   **   ~~~   ** Method used to determine the heating supply air flow rate is not specified when heating coil is present.
   ** Warning ** AirLoopHVAC:UnitarySystem = ZONE WAREHOUSE OFFICE B  - STORY GROUND PSZ-AC UNITARY AC
   **   ~~~   ** Method used to determine the cooling supply air flow rate is not specified when cooling coil is present.
   ** Warning ** AirLoopHVAC:UnitarySystem = ZONE WAREHOUSE OFFICE B  - STORY GROUND PSZ-AC UNITARY AC
   **   ~~~   ** Method used to determine the heating supply air flow rate is not specified when heating coil is present.
   ** Warning ** AirLoopHVAC:UnitarySystem = ZONE WAREHOUSE OFFICE C  - STORY GROUND PSZ-AC UNITARY AC
   **   ~~~   ** Method used to determine the cooling supply air flow rate is not specified when cooling coil is present.
   ** Warning ** AirLoopHVAC:UnitarySystem = ZONE WAREHOUSE OFFICE C  - STORY GROUND PSZ-AC UNITARY AC
   **   ~~~   ** Method used to determine the heating supply air flow rate is not specified when heating coil is present.
   ************* Beginning Plant Sizing Calculations
   ** Warning ** GetOAControllerInputs: Controller:MechanicalVentilation="CONTROLLER MECHANICAL VENTILATION 1
   **   ~~~   ** Cannot locate a matching DesignSpecification:ZoneAirDistribution object for Zone="ZONE WAREHOUSE FINE A  - STORY GROUND".
   **   ~~~   ** Using default zone air distribution effectiveness of 1.0 for heating and cooling.
   ** Warning ** GetOAControllerInputs: Controller:MechanicalVentilation="CONTROLLER MECHANICAL VENTILATION 2
   **   ~~~   ** Cannot locate a matching DesignSpecification:ZoneAirDistribution object for Zone="ZONE WAREHOUSE FINE A END_B - STORY GROUND".
   **   ~~~   ** Using default zone air distribution effectiveness of 1.0 for heating and cooling.
   ** Warning ** GetOAControllerInputs: Controller:MechanicalVentilation="CONTROLLER MECHANICAL VENTILATION 3
   **   ~~~   ** Cannot locate a matching DesignSpecification:ZoneAirDistribution object for Zone="ZONE WAREHOUSE FINE B  - STORY GROUND".
   **   ~~~   ** Using default zone air distribution effectiveness of 1.0 for heating and cooling.
   ** Warning ** GetOAControllerInputs: Controller:MechanicalVentilation="CONTROLLER MECHANICAL VENTILATION 4
   **   ~~~   ** Cannot locate a matching DesignSpecification:ZoneAirDistribution object for Zone="ZONE WAREHOUSE FINE B END_B - STORY GROUND".
   **   ~~~   ** Using default zone air distribution effectiveness of 1.0 for heating and cooling.
   ** Warning ** GetOAControllerInputs: Controller:MechanicalVentilation="CONTROLLER MECHANICAL VENTILATION 5
   **   ~~~   ** Cannot locate a matching DesignSpecification:ZoneAirDistribution object for Zone="ZONE WAREHOUSE FINE C  - STORY GROUND".
   **   ~~~   ** Using default zone air distribution effectiveness of 1.0 for heating and cooling.
   ** Warning ** GetOAControllerInputs: Controller:MechanicalVentilation="CONTROLLER MECHANICAL VENTILATION 6
   **   ~~~   ** Cannot locate a matching DesignSpecification:ZoneAirDistribution object for Zone="ZONE WAREHOUSE FINE C END_B - STORY GROUND".
   **   ~~~   ** Using default zone air distribution effectiveness of 1.0 for heating and cooling.
   ** Warning ** GetOAControllerInputs: Controller:MechanicalVentilation="CONTROLLER MECHANICAL VENTILATION 7
   **   ~~~   ** Cannot locate a matching DesignSpecification:ZoneAirDistribution object for Zone="ZONE WAREHOUSE OFFICE A  - STORY GROUND".
   **   ~~~   ** Using default zone air distribution effectiveness of 1.0 for heating and cooling.
   ** Warning ** GetOAControllerInputs: Controller:MechanicalVentilation="CONTROLLER MECHANICAL VENTILATION 8
   **   ~~~   ** Cannot locate a matching DesignSpecification:ZoneAirDistribution object for Zone="ZONE WAREHOUSE OFFICE B  - STORY GROUND".
   **   ~~~   ** Using default zone air distribution effectiveness of 1.0 for heating and cooling.
   ** Warning ** GetOAControllerInputs: Controller:MechanicalVentilation="CONTROLLER MECHANICAL VENTILATION 9
   **   ~~~   ** Cannot locate a matching DesignSpecification:ZoneAirDistribution object for Zone="ZONE WAREHOUSE OFFICE C  - STORY GROUND".
   **   ~~~   ** Using default zone air distribution effectiveness of 1.0 for heating and cooling.
   ** Warning ** The Standard Ratings is calculated for Coil:Cooling:DX:SingleSpeed = ZONE WAREHOUSE FINE A  - STORY GROUND PSZ-AC 1SPD DX AC CLG COIL 3KBTU/HR 13.0SEER but not at the AHRI test condition due to curve out of bound.
   **   ~~~   **  Review the Standard Ratings calculations in the Engineering Reference for this coil type. Also, use Output:Diagnostics, DisplayExtraWarnings for further guidance.
   ** Warning ** The Standard Ratings is calculated for Coil:Cooling:DX:SingleSpeed = ZONE WAREHOUSE FINE A END_B - STORY GROUND PSZ-AC 1SPD DX AC CLG COIL 5KBTU/HR 13.0SEER but not at the AHRI test condition due to curve out of bound.
   **   ~~~   **  Review the Standard Ratings calculations in the Engineering Reference for this coil type. Also, use Output:Diagnostics, DisplayExtraWarnings for further guidance.
   ** Warning ** The Standard Ratings is calculated for Coil:Cooling:DX:SingleSpeed = ZONE WAREHOUSE FINE B  - STORY GROUND PSZ-AC 1SPD DX AC CLG COIL 5KBTU/HR 13.0SEER but not at the AHRI test condition due to curve out of bound.
   **   ~~~   **  Review the Standard Ratings calculations in the Engineering Reference for this coil type. Also, use Output:Diagnostics, DisplayExtraWarnings for further guidance.
   ** Warning ** The Standard Ratings is calculated for Coil:Cooling:DX:SingleSpeed = ZONE WAREHOUSE FINE B END_B - STORY GROUND PSZ-AC 1SPD DX AC CLG COIL 8KBTU/HR 13.0SEER but not at the AHRI test condition due to curve out of bound.
   **   ~~~   **  Review the Standard Ratings calculations in the Engineering Reference for this coil type. Also, use Output:Diagnostics, DisplayExtraWarnings for further guidance.
   ** Warning ** The Standard Ratings is calculated for Coil:Cooling:DX:SingleSpeed = ZONE WAREHOUSE FINE C  - STORY GROUND PSZ-AC 1SPD DX AC CLG COIL 3KBTU/HR 13.0SEER but not at the AHRI test condition due to curve out of bound.
   **   ~~~   **  Review the Standard Ratings calculations in the Engineering Reference for this coil type. Also, use Output:Diagnostics, DisplayExtraWarnings for further guidance.
   ** Warning ** The Standard Ratings is calculated for Coil:Cooling:DX:SingleSpeed = ZONE WAREHOUSE FINE C END_B - STORY GROUND PSZ-AC 1SPD DX AC CLG COIL 5KBTU/HR 13.0SEER but not at the AHRI test condition due to curve out of bound.
   **   ~~~   **  Review the Standard Ratings calculations in the Engineering Reference for this coil type. Also, use Output:Diagnostics, DisplayExtraWarnings for further guidance.
   ** Warning ** The Standard Ratings is calculated for Coil:Cooling:DX:SingleSpeed = ZONE WAREHOUSE OFFICE A  - STORY GROUND PSZ-AC 1SPD DX AC CLG COIL 4KBTU/HR 13.0SEER but not at the AHRI test condition due to curve out of bound.
   **   ~~~   **  Review the Standard Ratings calculations in the Engineering Reference for this coil type. Also, use Output:Diagnostics, DisplayExtraWarnings for further guidance.
   ** Warning ** The Standard Ratings is calculated for Coil:Cooling:DX:SingleSpeed = ZONE WAREHOUSE OFFICE B  - STORY GROUND PSZ-AC 1SPD DX AC CLG COIL 10KBTU/HR 13.0SEER but not at the AHRI test condition due to curve out of bound.
   **   ~~~   **  Review the Standard Ratings calculations in the Engineering Reference for this coil type. Also, use Output:Diagnostics, DisplayExtraWarnings for further guidance.
   ** Warning ** The Standard Ratings is calculated for Coil:Cooling:DX:SingleSpeed = ZONE WAREHOUSE OFFICE C  - STORY GROUND PSZ-AC 1SPD DX AC CLG COIL 4KBTU/HR 13.0SEER but not at the AHRI test condition due to curve out of bound.
   **   ~~~   **  Review the Standard Ratings calculations in the Engineering Reference for this coil type. Also, use Output:Diagnostics, DisplayExtraWarnings for further guidance.
   ** Warning ** SizePlantLoop: Calculated Plant Sizing Design Volume Flow Rate=[0.00] is too small. Set to 0.0
   **   ~~~   ** ..occurs for PlantLoop=MAIN SERVICE WATER LOOP
   ** Warning ** SizePump: Calculated Pump Nominal Volume Flow Rate=[0.00] is too small. Set to 0.0
   **   ~~~   ** ..occurs for Pump=MAIN SERVICE WATER LOOP WATER MAINS PRESSURE DRIVEN
   ** Warning ** Check input. Pump nominal power or motor efficiency is set to 0, for pump=MAIN SERVICE WATER LOOP WATER MAINS PRESSURE DRIVEN
   ** Warning ** Check input. Pump nominal flow rate is set or calculated = 0, for pump=MAIN SERVICE WATER LOOP WATER MAINS PRESSURE DRIVEN
   ** Warning ** Output:Meter: invalid Key Name="DISTRICTCOOLING:FACILITY" - not found.
   ** Warning ** Output:Meter: invalid Key Name="DISTRICTHEATING:FACILITY" - not found.
   ** Warning ** Output:Meter:MeterFileOnly requested for "Electricity:Facility" (TimeStep), already on "Output:Meter". Will report to both eplusout.eso and eplusout.mtr
   ************* Testing Individual Branch Integrity
   ************* All Branches passed integrity testing
   ************* Testing Individual Supply Air Path Integrity
   ************* All Supply Air Paths passed integrity testing
   ************* Testing Individual Return Air Path Integrity
   ************* All Return Air Paths passed integrity testing
   ************* No node connection errors were found.
   ************* Beginning Simulation
   ** Warning ** CalcOAController: Minimum OA fraction > Mechanical Ventilation Controller request for Controller:OutdoorAir=ZONE WAREHOUSE FINE A  - STORY GROUND PSZ-AC OA SYSTEM CONTROLLER, Min OA fraction is used.
   **   ~~~   ** This may be overriding desired ventilation controls. Check inputs for Minimum Outdoor Air Flow Rate, Minimum Outdoor Air Schedule Name and Controller:MechanicalVentilation
   **   ~~~   ** Minimum OA fraction = 0.1241, Mech Vent OA fraction = 7.2767E-002
   **   ~~~   **  Environment=RUN PERIOD 1, at Simulation time=01/01 00:00 - 00:10
   ** Warning ** CalcOAController: Minimum OA fraction > Mechanical Ventilation Controller request for Controller:OutdoorAir=ZONE WAREHOUSE FINE A END_B - STORY GROUND PSZ-AC OA SYSTEM CONTROLLER, Min OA fraction is used.
   **   ~~~   ** This may be overriding desired ventilation controls. Check inputs for Minimum Outdoor Air Flow Rate, Minimum Outdoor Air Schedule Name and Controller:MechanicalVentilation
   **   ~~~   ** Minimum OA fraction = 7.0157E-002, Mech Vent OA fraction = 4.1813E-002
   **   ~~~   **  Environment=RUN PERIOD 1, at Simulation time=01/01 00:00 - 00:10
   ** Warning ** CalcOAController: Minimum OA fraction > Mechanical Ventilation Controller request for Controller:OutdoorAir=ZONE WAREHOUSE FINE B  - STORY GROUND PSZ-AC OA SYSTEM CONTROLLER, Min OA fraction is used.
   **   ~~~   ** This may be overriding desired ventilation controls. Check inputs for Minimum Outdoor Air Flow Rate, Minimum Outdoor Air Schedule Name and Controller:MechanicalVentilation
   **   ~~~   ** Minimum OA fraction = 0.2181, Mech Vent OA fraction = 5.3451E-002
   **   ~~~   **  Environment=RUN PERIOD 1, at Simulation time=01/01 00:00 - 00:10
   ** Warning ** CalcOAController: Minimum OA fraction > Mechanical Ventilation Controller request for Controller:OutdoorAir=ZONE WAREHOUSE FINE B END_B - STORY GROUND PSZ-AC OA SYSTEM CONTROLLER, Min OA fraction is used.
   **   ~~~   ** This may be overriding desired ventilation controls. Check inputs for Minimum Outdoor Air Flow Rate, Minimum Outdoor Air Schedule Name and Controller:MechanicalVentilation
   **   ~~~   ** Minimum OA fraction = 0.1277, Mech Vent OA fraction = 7.7732E-002
   **   ~~~   **  Environment=RUN PERIOD 1, at Simulation time=01/01 00:00 - 00:10
   ** Warning ** CalcOAController: Minimum OA fraction > Mechanical Ventilation Controller request for Controller:OutdoorAir=ZONE WAREHOUSE FINE C  - STORY GROUND PSZ-AC OA SYSTEM CONTROLLER, Min OA fraction is used.
   **   ~~~   ** This may be overriding desired ventilation controls. Check inputs for Minimum Outdoor Air Flow Rate, Minimum Outdoor Air Schedule Name and Controller:MechanicalVentilation
   **   ~~~   ** Minimum OA fraction = 0.1241, Mech Vent OA fraction = 7.5968E-002
   **   ~~~   **  Environment=RUN PERIOD 1, at Simulation time=01/01 00:00 - 00:10
   ** Warning ** CalcOAController: Minimum OA fraction > Mechanical Ventilation Controller request for Controller:OutdoorAir=ZONE WAREHOUSE FINE C END_B - STORY GROUND PSZ-AC OA SYSTEM CONTROLLER, Min OA fraction is used.
   **   ~~~   ** This may be overriding desired ventilation controls. Check inputs for Minimum Outdoor Air Flow Rate, Minimum Outdoor Air Schedule Name and Controller:MechanicalVentilation
   **   ~~~   ** Minimum OA fraction = 7.0163E-002, Mech Vent OA fraction = 4.2853E-002
   **   ~~~   **  Environment=RUN PERIOD 1, at Simulation time=01/01 00:00 - 00:10
   ** Warning ** CalcOAController: Minimum OA fraction > Mechanical Ventilation Controller request for Controller:OutdoorAir=ZONE WAREHOUSE OFFICE A  - STORY GROUND PSZ-AC OA SYSTEM CONTROLLER, Min OA fraction is used.
   **   ~~~   ** This may be overriding desired ventilation controls. Check inputs for Minimum Outdoor Air Flow Rate, Minimum Outdoor Air Schedule Name and Controller:MechanicalVentilation
   **   ~~~   ** Minimum OA fraction = 3.4919E-002, Mech Vent OA fraction = 8.7557E-003
   **   ~~~   **  Environment=RUN PERIOD 1, at Simulation time=01/01 00:00 - 00:10
   ** Warning ** CalcOAController: Minimum OA fraction > Mechanical Ventilation Controller request for Controller:OutdoorAir=ZONE WAREHOUSE OFFICE B  - STORY GROUND PSZ-AC OA SYSTEM CONTROLLER, Min OA fraction is used.
   **   ~~~   ** This may be overriding desired ventilation controls. Check inputs for Minimum Outdoor Air Flow Rate, Minimum Outdoor Air Schedule Name and Controller:MechanicalVentilation
   **   ~~~   ** Minimum OA fraction = 3.5277E-002, Mech Vent OA fraction = 3.8954E-003
   **   ~~~   **  Environment=RUN PERIOD 1, at Simulation time=01/01 00:00 - 00:10
   ** Warning ** CalcOAController: Minimum OA fraction > Mechanical Ventilation Controller request for Controller:OutdoorAir=ZONE WAREHOUSE OFFICE C  - STORY GROUND PSZ-AC OA SYSTEM CONTROLLER, Min OA fraction is used.
   **   ~~~   ** This may be overriding desired ventilation controls. Check inputs for Minimum Outdoor Air Flow Rate, Minimum Outdoor Air Schedule Name and Controller:MechanicalVentilation
   **   ~~~   ** Minimum OA fraction = 3.8391E-002, Mech Vent OA fraction = 1.0982E-002
   **   ~~~   **  Environment=RUN PERIOD 1, at Simulation time=01/01 00:00 - 00:10
   ** Warning ** In Output:Table:Monthly 'BUILDING ENERGY PERFORMANCE - FUELOILNO1' invalid Variable or Meter Name 'HEATING:FUELOILNO1'
   ** Warning ** In Output:Table:Monthly 'BUILDING ENERGY PERFORMANCE - FUELOILNO1' invalid Variable or Meter Name 'COOLING:FUELOILNO1'
   ** Warning ** In Output:Table:Monthly 'BUILDING ENERGY PERFORMANCE - FUELOILNO1' invalid Variable or Meter Name 'INTERIOR LIGHTING:FUELOILNO1'
   ** Warning ** In Output:Table:Monthly 'BUILDING ENERGY PERFORMANCE - FUELOILNO1' invalid Variable or Meter Name 'EXTERIOR LIGHTING:FUELOILNO1'
   ** Warning ** In Output:Table:Monthly 'BUILDING ENERGY PERFORMANCE - FUELOILNO1' invalid Variable or Meter Name 'INTERIOR EQUIPMENT:FUELOILNO1'
   ** Warning ** In Output:Table:Monthly 'BUILDING ENERGY PERFORMANCE - FUELOILNO1' invalid Variable or Meter Name 'EXTERIOR EQUIPMENT:FUELOILNO1'
   ** Warning ** In Output:Table:Monthly 'BUILDING ENERGY PERFORMANCE - FUELOILNO1' invalid Variable or Meter Name 'FANS:FUELOILNO1'
   ** Warning ** In Output:Table:Monthly 'BUILDING ENERGY PERFORMANCE - FUELOILNO1' invalid Variable or Meter Name 'PUMPS:FUELOILNO1'
   ** Warning ** In Output:Table:Monthly 'BUILDING ENERGY PERFORMANCE - FUELOILNO1' invalid Variable or Meter Name 'HEAT REJECTION:FUELOILNO1'
   ** Warning ** In Output:Table:Monthly 'BUILDING ENERGY PERFORMANCE - FUELOILNO1' invalid Variable or Meter Name 'HUMIDIFICATION:FUELOILNO1'
   ** Warning ** In Output:Table:Monthly 'BUILDING ENERGY PERFORMANCE - FUELOILNO1' invalid Variable or Meter Name 'HEAT RECOVERY:FUELOILNO1'
   ** Warning ** In Output:Table:Monthly 'BUILDING ENERGY PERFORMANCE - FUELOILNO1' invalid Variable or Meter Name 'WATER SYSTEMS:FUELOILNO1'
   ** Warning ** In Output:Table:Monthly 'BUILDING ENERGY PERFORMANCE - FUELOILNO1' invalid Variable or Meter Name 'REFRIGERATION:FUELOILNO1'
   ** Warning ** In Output:Table:Monthly 'BUILDING ENERGY PERFORMANCE - FUELOILNO1' invalid Variable or Meter Name 'GENERATORS:FUELOILNO1'
   ** Warning ** In Output:Table:Monthly 'BUILDING ENERGY PERFORMANCE - FUELOILNO2' invalid Variable or Meter Name 'HEATING:FUELOILNO2'
   ** Warning ** In Output:Table:Monthly 'BUILDING ENERGY PERFORMANCE - FUELOILNO2' invalid Variable or Meter Name 'COOLING:FUELOILNO2'
   ** Warning ** In Output:Table:Monthly 'BUILDING ENERGY PERFORMANCE - FUELOILNO2' invalid Variable or Meter Name 'INTERIOR LIGHTING:FUELOILNO2'
   ** Warning ** In Output:Table:Monthly 'BUILDING ENERGY PERFORMANCE - FUELOILNO2' invalid Variable or Meter Name 'EXTERIOR LIGHTING:FUELOILNO2'
   ** Warning ** In Output:Table:Monthly 'BUILDING ENERGY PERFORMANCE - FUELOILNO2' invalid Variable or Meter Name 'INTERIOR EQUIPMENT:FUELOILNO2'
   ** Warning ** In Output:Table:Monthly 'BUILDING ENERGY PERFORMANCE - FUELOILNO2' invalid Variable or Meter Name 'EXTERIOR EQUIPMENT:FUELOILNO2'
   ** Warning ** In Output:Table:Monthly 'BUILDING ENERGY PERFORMANCE - FUELOILNO2' invalid Variable or Meter Name 'FANS:FUELOILNO2'
   ** Warning ** In Output:Table:Monthly 'BUILDING ENERGY PERFORMANCE - FUELOILNO2' invalid Variable or Meter Name 'PUMPS:FUELOILNO2'
   ** Warning ** In Output:Table:Monthly 'BUILDING ENERGY PERFORMANCE - FUELOILNO2' invalid Variable or Meter Name 'HEAT REJECTION:FUELOILNO2'
   ** Warning ** In Output:Table:Monthly 'BUILDING ENERGY PERFORMANCE - FUELOILNO2' invalid Variable or Meter Name 'HUMIDIFICATION:FUELOILNO2'
   ** Warning ** In Output:Table:Monthly 'BUILDING ENERGY PERFORMANCE - FUELOILNO2' invalid Variable or Meter Name 'HEAT RECOVERY:FUELOILNO2'
   ** Warning ** In Output:Table:Monthly 'BUILDING ENERGY PERFORMANCE - FUELOILNO2' invalid Variable or Meter Name 'WATER SYSTEMS:FUELOILNO2'
   ** Warning ** In Output:Table:Monthly 'BUILDING ENERGY PERFORMANCE - FUELOILNO2' invalid Variable or Meter Name 'REFRIGERATION:FUELOILNO2'
   ** Warning ** In Output:Table:Monthly 'BUILDING ENERGY PERFORMANCE - FUELOILNO2' invalid Variable or Meter Name 'GENERATORS:FUELOILNO2'
   ** Warning ** In Output:Table:Monthly 'BUILDING ENERGY PERFORMANCE - PROPANEGAS' invalid Variable or Meter Name 'HEATING:PROPANEGAS'
   ** Warning ** In Output:Table:Monthly 'BUILDING ENERGY PERFORMANCE - PROPANEGAS' invalid Variable or Meter Name 'COOLING:PROPANEGAS'
   ** Warning ** In Output:Table:Monthly 'BUILDING ENERGY PERFORMANCE - PROPANEGAS' invalid Variable or Meter Name 'INTERIOR LIGHTING:PROPANEGAS'
   ** Warning ** In Output:Table:Monthly 'BUILDING ENERGY PERFORMANCE - PROPANEGAS' invalid Variable or Meter Name 'EXTERIOR LIGHTING:PROPANEGAS'
   ** Warning ** In Output:Table:Monthly 'BUILDING ENERGY PERFORMANCE - PROPANEGAS' invalid Variable or Meter Name 'INTERIOR EQUIPMENT:PROPANEGAS'
   ** Warning ** In Output:Table:Monthly 'BUILDING ENERGY PERFORMANCE - PROPANEGAS' invalid Variable or Meter Name 'EXTERIOR EQUIPMENT:PROPANEGAS'
   ** Warning ** In Output:Table:Monthly 'BUILDING ENERGY PERFORMANCE - PROPANEGAS' invalid Variable or Meter Name 'FANS:PROPANEGAS'
   ** Warning ** In Output:Table:Monthly 'BUILDING ENERGY PERFORMANCE - PROPANEGAS' invalid Variable or Meter Name 'PUMPS:PROPANEGAS'
   ** Warning ** In Output:Table:Monthly 'BUILDING ENERGY PERFORMANCE - PROPANEGAS' invalid Variable or Meter Name 'HEAT REJECTION:PROPANEGAS'
   ** Warning ** In Output:Table:Monthly 'BUILDING ENERGY PERFORMANCE - PROPANEGAS' invalid Variable or Meter Name 'HUMIDIFICATION:PROPANEGAS'
   ** Warning ** In Output:Table:Monthly 'BUILDING ENERGY PERFORMANCE - PROPANEGAS' invalid Variable or Meter Name 'HEAT RECOVERY:PROPANEGAS'
   ** Warning ** In Output:Table:Monthly 'BUILDING ENERGY PERFORMANCE - PROPANEGAS' invalid Variable or Meter Name 'WATER SYSTEMS:PROPANEGAS'
   ** Warning ** In Output:Table:Monthly 'BUILDING ENERGY PERFORMANCE - PROPANEGAS' invalid Variable or Meter Name 'REFRIGERATION:PROPANEGAS'
   ** Warning ** In Output:Table:Monthly 'BUILDING ENERGY PERFORMANCE - PROPANEGAS' invalid Variable or Meter Name 'GENERATORS:PROPANEGAS'
   ** Warning ** In Output:Table:Monthly 'BUILDING ENERGY PERFORMANCE - COAL' invalid Variable or Meter Name 'HEATING:COAL'
   ** Warning ** In Output:Table:Monthly 'BUILDING ENERGY PERFORMANCE - COAL' invalid Variable or Meter Name 'COOLING:COAL'
   ** Warning ** In Output:Table:Monthly 'BUILDING ENERGY PERFORMANCE - COAL' invalid Variable or Meter Name 'INTERIOR LIGHTING:COAL'
   ** Warning ** In Output:Table:Monthly 'BUILDING ENERGY PERFORMANCE - COAL' invalid Variable or Meter Name 'EXTERIOR LIGHTING:COAL'
   ** Warning ** In Output:Table:Monthly 'BUILDING ENERGY PERFORMANCE - COAL' invalid Variable or Meter Name 'INTERIOR EQUIPMENT:COAL'
   ** Warning ** In Output:Table:Monthly 'BUILDING ENERGY PERFORMANCE - COAL' invalid Variable or Meter Name 'EXTERIOR EQUIPMENT:COAL'
   ** Warning ** In Output:Table:Monthly 'BUILDING ENERGY PERFORMANCE - COAL' invalid Variable or Meter Name 'FANS:COAL'
   ** Warning ** In Output:Table:Monthly 'BUILDING ENERGY PERFORMANCE - COAL' invalid Variable or Meter Name 'PUMPS:COAL'
   ** Warning ** In Output:Table:Monthly 'BUILDING ENERGY PERFORMANCE - COAL' invalid Variable or Meter Name 'HEAT REJECTION:COAL'
   ** Warning ** In Output:Table:Monthly 'BUILDING ENERGY PERFORMANCE - COAL' invalid Variable or Meter Name 'HUMIDIFICATION:COAL'
   ** Warning ** In Output:Table:Monthly 'BUILDING ENERGY PERFORMANCE - COAL' invalid Variable or Meter Name 'HEAT RECOVERY:COAL'
   ** Warning ** In Output:Table:Monthly 'BUILDING ENERGY PERFORMANCE - COAL' invalid Variable or Meter Name 'WATER SYSTEMS:COAL'
   ** Warning ** In Output:Table:Monthly 'BUILDING ENERGY PERFORMANCE - COAL' invalid Variable or Meter Name 'REFRIGERATION:COAL'
   ** Warning ** In Output:Table:Monthly 'BUILDING ENERGY PERFORMANCE - COAL' invalid Variable or Meter Name 'GENERATORS:COAL'
   ** Warning ** In Output:Table:Monthly 'BUILDING ENERGY PERFORMANCE - DIESEL' invalid Variable or Meter Name 'HEATING:DIESEL'
   ** Warning ** In Output:Table:Monthly 'BUILDING ENERGY PERFORMANCE - DIESEL' invalid Variable or Meter Name 'COOLING:DIESEL'
   ** Warning ** In Output:Table:Monthly 'BUILDING ENERGY PERFORMANCE - DIESEL' invalid Variable or Meter Name 'INTERIOR LIGHTING:DIESEL'
   ** Warning ** In Output:Table:Monthly 'BUILDING ENERGY PERFORMANCE - DIESEL' invalid Variable or Meter Name 'EXTERIOR LIGHTING:DIESEL'
   ** Warning ** In Output:Table:Monthly 'BUILDING ENERGY PERFORMANCE - DIESEL' invalid Variable or Meter Name 'INTERIOR EQUIPMENT:DIESEL'
   ** Warning ** In Output:Table:Monthly 'BUILDING ENERGY PERFORMANCE - DIESEL' invalid Variable or Meter Name 'EXTERIOR EQUIPMENT:DIESEL'
   ** Warning ** In Output:Table:Monthly 'BUILDING ENERGY PERFORMANCE - DIESEL' invalid Variable or Meter Name 'FANS:DIESEL'
   ** Warning ** In Output:Table:Monthly 'BUILDING ENERGY PERFORMANCE - DIESEL' invalid Variable or Meter Name 'PUMPS:DIESEL'
   ** Warning ** In Output:Table:Monthly 'BUILDING ENERGY PERFORMANCE - DIESEL' invalid Variable or Meter Name 'HEAT REJECTION:DIESEL'
   ** Warning ** In Output:Table:Monthly 'BUILDING ENERGY PERFORMANCE - DIESEL' invalid Variable or Meter Name 'HUMIDIFICATION:DIESEL'
   ** Warning ** In Output:Table:Monthly 'BUILDING ENERGY PERFORMANCE - DIESEL' invalid Variable or Meter Name 'HEAT RECOVERY:DIESEL'
   ** Warning ** In Output:Table:Monthly 'BUILDING ENERGY PERFORMANCE - DIESEL' invalid Variable or Meter Name 'WATER SYSTEMS:DIESEL'
   ** Warning ** In Output:Table:Monthly 'BUILDING ENERGY PERFORMANCE - DIESEL' invalid Variable or Meter Name 'REFRIGERATION:DIESEL'
   ** Warning ** In Output:Table:Monthly 'BUILDING ENERGY PERFORMANCE - DIESEL' invalid Variable or Meter Name 'GENERATORS:DIESEL'
   ** Warning ** In Output:Table:Monthly 'BUILDING ENERGY PERFORMANCE - GASOLINE' invalid Variable or Meter Name 'HEATING:GASOLINE'
   ** Warning ** In Output:Table:Monthly 'BUILDING ENERGY PERFORMANCE - GASOLINE' invalid Variable or Meter Name 'COOLING:GASOLINE'
   ** Warning ** In Output:Table:Monthly 'BUILDING ENERGY PERFORMANCE - GASOLINE' invalid Variable or Meter Name 'INTERIOR LIGHTING:GASOLINE'
   ** Warning ** In Output:Table:Monthly 'BUILDING ENERGY PERFORMANCE - GASOLINE' invalid Variable or Meter Name 'EXTERIOR LIGHTING:GASOLINE'
   ** Warning ** In Output:Table:Monthly 'BUILDING ENERGY PERFORMANCE - GASOLINE' invalid Variable or Meter Name 'INTERIOR EQUIPMENT:GASOLINE'
   ** Warning ** In Output:Table:Monthly 'BUILDING ENERGY PERFORMANCE - GASOLINE' invalid Variable or Meter Name 'EXTERIOR EQUIPMENT:GASOLINE'
   ** Warning ** In Output:Table:Monthly 'BUILDING ENERGY PERFORMANCE - GASOLINE' invalid Variable or Meter Name 'FANS:GASOLINE'
   ** Warning ** In Output:Table:Monthly 'BUILDING ENERGY PERFORMANCE - GASOLINE' invalid Variable or Meter Name 'PUMPS:GASOLINE'
   ** Warning ** In Output:Table:Monthly 'BUILDING ENERGY PERFORMANCE - GASOLINE' invalid Variable or Meter Name 'HEAT REJECTION:GASOLINE'
   ** Warning ** In Output:Table:Monthly 'BUILDING ENERGY PERFORMANCE - GASOLINE' invalid Variable or Meter Name 'HUMIDIFICATION:GASOLINE'
   ** Warning ** In Output:Table:Monthly 'BUILDING ENERGY PERFORMANCE - GASOLINE' invalid Variable or Meter Name 'HEAT RECOVERY:GASOLINE'
   ** Warning ** In Output:Table:Monthly 'BUILDING ENERGY PERFORMANCE - GASOLINE' invalid Variable or Meter Name 'WATER SYSTEMS:GASOLINE'
   ** Warning ** In Output:Table:Monthly 'BUILDING ENERGY PERFORMANCE - GASOLINE' invalid Variable or Meter Name 'REFRIGERATION:GASOLINE'
   ** Warning ** In Output:Table:Monthly 'BUILDING ENERGY PERFORMANCE - GASOLINE' invalid Variable or Meter Name 'GENERATORS:GASOLINE'
   ** Warning ** In Output:Table:Monthly 'BUILDING ENERGY PERFORMANCE - OTHERFUEL1' invalid Variable or Meter Name 'HEATING:OTHERFUEL1'
   ** Warning ** In Output:Table:Monthly 'BUILDING ENERGY PERFORMANCE - OTHERFUEL1' invalid Variable or Meter Name 'COOLING:OTHERFUEL1'
   ** Warning ** In Output:Table:Monthly 'BUILDING ENERGY PERFORMANCE - OTHERFUEL1' invalid Variable or Meter Name 'INTERIOR LIGHTING:OTHERFUEL1'
   ** Warning ** In Output:Table:Monthly 'BUILDING ENERGY PERFORMANCE - OTHERFUEL1' invalid Variable or Meter Name 'EXTERIOR LIGHTING:OTHERFUEL1'
   ** Warning ** In Output:Table:Monthly 'BUILDING ENERGY PERFORMANCE - OTHERFUEL1' invalid Variable or Meter Name 'INTERIOR EQUIPMENT:OTHERFUEL1'
   ** Warning ** In Output:Table:Monthly 'BUILDING ENERGY PERFORMANCE - OTHERFUEL1' invalid Variable or Meter Name 'EXTERIOR EQUIPMENT:OTHERFUEL1'
   ** Warning ** In Output:Table:Monthly 'BUILDING ENERGY PERFORMANCE - OTHERFUEL1' invalid Variable or Meter Name 'FANS:OTHERFUEL1'
   ** Warning ** In Output:Table:Monthly 'BUILDING ENERGY PERFORMANCE - OTHERFUEL1' invalid Variable or Meter Name 'PUMPS:OTHERFUEL1'
   ** Warning ** In Output:Table:Monthly 'BUILDING ENERGY PERFORMANCE - OTHERFUEL1' invalid Variable or Meter Name 'HEAT REJECTION:OTHERFUEL1'
   ** Warning ** In Output:Table:Monthly 'BUILDING ENERGY PERFORMANCE - OTHERFUEL1' invalid Variable or Meter Name 'HUMIDIFICATION:OTHERFUEL1'
   ** Warning ** In Output:Table:Monthly 'BUILDING ENERGY PERFORMANCE - OTHERFUEL1' invalid Variable or Meter Name 'HEAT RECOVERY:OTHERFUEL1'
   ** Warning ** In Output:Table:Monthly 'BUILDING ENERGY PERFORMANCE - OTHERFUEL1' invalid Variable or Meter Name 'WATER SYSTEMS:OTHERFUEL1'
   ** Warning ** In Output:Table:Monthly 'BUILDING ENERGY PERFORMANCE - OTHERFUEL1' invalid Variable or Meter Name 'REFRIGERATION:OTHERFUEL1'
   ** Warning ** In Output:Table:Monthly 'BUILDING ENERGY PERFORMANCE - OTHERFUEL1' invalid Variable or Meter Name 'GENERATORS:OTHERFUEL1'
   ** Warning ** In Output:Table:Monthly 'BUILDING ENERGY PERFORMANCE - OTHERFUEL2' invalid Variable or Meter Name 'HEATING:OTHERFUEL2'
   ** Warning ** In Output:Table:Monthly 'BUILDING ENERGY PERFORMANCE - OTHERFUEL2' invalid Variable or Meter Name 'COOLING:OTHERFUEL2'
   ** Warning ** In Output:Table:Monthly 'BUILDING ENERGY PERFORMANCE - OTHERFUEL2' invalid Variable or Meter Name 'INTERIOR LIGHTING:OTHERFUEL2'
   ** Warning ** In Output:Table:Monthly 'BUILDING ENERGY PERFORMANCE - OTHERFUEL2' invalid Variable or Meter Name 'EXTERIOR LIGHTING:OTHERFUEL2'
   ** Warning ** In Output:Table:Monthly 'BUILDING ENERGY PERFORMANCE - OTHERFUEL2' invalid Variable or Meter Name 'INTERIOR EQUIPMENT:OTHERFUEL2'
   ** Warning ** In Output:Table:Monthly 'BUILDING ENERGY PERFORMANCE - OTHERFUEL2' invalid Variable or Meter Name 'EXTERIOR EQUIPMENT:OTHERFUEL2'
   ** Warning ** In Output:Table:Monthly 'BUILDING ENERGY PERFORMANCE - OTHERFUEL2' invalid Variable or Meter Name 'FANS:OTHERFUEL2'
   ** Warning ** In Output:Table:Monthly 'BUILDING ENERGY PERFORMANCE - OTHERFUEL2' invalid Variable or Meter Name 'PUMPS:OTHERFUEL2'
   ** Warning ** In Output:Table:Monthly 'BUILDING ENERGY PERFORMANCE - OTHERFUEL2' invalid Variable or Meter Name 'HEAT REJECTION:OTHERFUEL2'
   ** Warning ** In Output:Table:Monthly 'BUILDING ENERGY PERFORMANCE - OTHERFUEL2' invalid Variable or Meter Name 'HUMIDIFICATION:OTHERFUEL2'
   ** Warning ** In Output:Table:Monthly 'BUILDING ENERGY PERFORMANCE - OTHERFUEL2' invalid Variable or Meter Name 'HEAT RECOVERY:OTHERFUEL2'
   ** Warning ** In Output:Table:Monthly 'BUILDING ENERGY PERFORMANCE - OTHERFUEL2' invalid Variable or Meter Name 'WATER SYSTEMS:OTHERFUEL2'
   ** Warning ** In Output:Table:Monthly 'BUILDING ENERGY PERFORMANCE - OTHERFUEL2' invalid Variable or Meter Name 'REFRIGERATION:OTHERFUEL2'
   ** Warning ** In Output:Table:Monthly 'BUILDING ENERGY PERFORMANCE - OTHERFUEL2' invalid Variable or Meter Name 'GENERATORS:OTHERFUEL2'
   ** Warning ** In Output:Table:Monthly 'BUILDING ENERGY PERFORMANCE - ELECTRICITY' invalid Variable or Meter Name 'EXTERIOREQUIPMENT:ELECTRICITY'
   ** Warning ** In Output:Table:Monthly 'BUILDING ENERGY PERFORMANCE - ELECTRICITY' invalid Variable or Meter Name 'HEATREJECTION:ELECTRICITY'
   ** Warning ** In Output:Table:Monthly 'BUILDING ENERGY PERFORMANCE - ELECTRICITY' invalid Variable or Meter Name 'HUMIDIFIER:ELECTRICITY'
   ** Warning ** In Output:Table:Monthly 'BUILDING ENERGY PERFORMANCE - ELECTRICITY' invalid Variable or Meter Name 'HEATRECOVERY:ELECTRICITY'
   ** Warning ** In Output:Table:Monthly 'BUILDING ENERGY PERFORMANCE - ELECTRICITY' invalid Variable or Meter Name 'COGENERATION:ELECTRICITY'
   ** Warning ** In Output:Table:Monthly 'BUILDING ENERGY PERFORMANCE - ELECTRICITY' invalid Variable or Meter Name 'REFRIGERATION:ELECTRICITY'
   ** Warning ** In Output:Table:Monthly 'BUILDING ENERGY PERFORMANCE - NATURAL GAS' invalid Variable or Meter Name 'INTERIOREQUIPMENT:NATURALGAS'
   ** Warning ** In Output:Table:Monthly 'BUILDING ENERGY PERFORMANCE - NATURAL GAS' invalid Variable or Meter Name 'EXTERIOREQUIPMENT:NATURALGAS'
   ** Warning ** In Output:Table:Monthly 'BUILDING ENERGY PERFORMANCE - NATURAL GAS' invalid Variable or Meter Name 'COOLING:NATURALGAS'
   ** Warning ** In Output:Table:Monthly 'BUILDING ENERGY PERFORMANCE - NATURAL GAS' invalid Variable or Meter Name 'WATERSYSTEMS:NATURALGAS'
   ** Warning ** In Output:Table:Monthly 'BUILDING ENERGY PERFORMANCE - NATURAL GAS' invalid Variable or Meter Name 'COGENERATION:NATURALGAS'
   ** Warning ** In Output:Table:Monthly 'BUILDING ENERGY PERFORMANCE - DISTRICT HEATING' invalid Variable or Meter Name 'INTERIORLIGHTS:DISTRICTHEATING'
   ** Warning ** In Output:Table:Monthly 'BUILDING ENERGY PERFORMANCE - DISTRICT HEATING' invalid Variable or Meter Name 'EXTERIORLIGHTS:DISTRICTHEATING'
   ** Warning ** In Output:Table:Monthly 'BUILDING ENERGY PERFORMANCE - DISTRICT HEATING' invalid Variable or Meter Name 'INTERIOREQUIPMENT:DISTRICTHEATING'
   ** Warning ** In Output:Table:Monthly 'BUILDING ENERGY PERFORMANCE - DISTRICT HEATING' invalid Variable or Meter Name 'EXTERIOREQUIPMENT:DISTRICTHEATING'
   ** Warning ** In Output:Table:Monthly 'BUILDING ENERGY PERFORMANCE - DISTRICT HEATING' invalid Variable or Meter Name 'FANS:DISTRICTHEATING'
   ** Warning ** In Output:Table:Monthly 'BUILDING ENERGY PERFORMANCE - DISTRICT HEATING' invalid Variable or Meter Name 'PUMPS:DISTRICTHEATING'
   ** Warning ** In Output:Table:Monthly 'BUILDING ENERGY PERFORMANCE - DISTRICT HEATING' invalid Variable or Meter Name 'HEATING:DISTRICTHEATING'
   ** Warning ** In Output:Table:Monthly 'BUILDING ENERGY PERFORMANCE - DISTRICT HEATING' invalid Variable or Meter Name 'COOLING:DISTRICTHEATING'
   ** Warning ** In Output:Table:Monthly 'BUILDING ENERGY PERFORMANCE - DISTRICT HEATING' invalid Variable or Meter Name 'HEATREJECTION:DISTRICTHEATING'
   ** Warning ** In Output:Table:Monthly 'BUILDING ENERGY PERFORMANCE - DISTRICT HEATING' invalid Variable or Meter Name 'HUMIDIFIER:DISTRICTHEATING'
   ** Warning ** In Output:Table:Monthly 'BUILDING ENERGY PERFORMANCE - DISTRICT HEATING' invalid Variable or Meter Name 'HEATRECOVERY:DISTRICTHEATING'
   ** Warning ** In Output:Table:Monthly 'BUILDING ENERGY PERFORMANCE - DISTRICT HEATING' invalid Variable or Meter Name 'WATERSYSTEMS:DISTRICTHEATING'
   ** Warning ** In Output:Table:Monthly 'BUILDING ENERGY PERFORMANCE - DISTRICT HEATING' invalid Variable or Meter Name 'COGENERATION:DISTRICTHEATING'
   ** Warning ** In Output:Table:Monthly 'BUILDING ENERGY PERFORMANCE - DISTRICT COOLING' invalid Variable or Meter Name 'INTERIORLIGHTS:DISTRICTCOOLING'
   ** Warning ** In Output:Table:Monthly 'BUILDING ENERGY PERFORMANCE - DISTRICT COOLING' invalid Variable or Meter Name 'EXTERIORLIGHTS:DISTRICTCOOLING'
   ** Warning ** In Output:Table:Monthly 'BUILDING ENERGY PERFORMANCE - DISTRICT COOLING' invalid Variable or Meter Name 'INTERIOREQUIPMENT:DISTRICTCOOLING'
   ** Warning ** In Output:Table:Monthly 'BUILDING ENERGY PERFORMANCE - DISTRICT COOLING' invalid Variable or Meter Name 'EXTERIOREQUIPMENT:DISTRICTCOOLING'
   ** Warning ** In Output:Table:Monthly 'BUILDING ENERGY PERFORMANCE - DISTRICT COOLING' invalid Variable or Meter Name 'FANS:DISTRICTCOOLING'
   ** Warning ** In Output:Table:Monthly 'BUILDING ENERGY PERFORMANCE - DISTRICT COOLING' invalid Variable or Meter Name 'PUMPS:DISTRICTCOOLING'
   ** Warning ** In Output:Table:Monthly 'BUILDING ENERGY PERFORMANCE - DISTRICT COOLING' invalid Variable or Meter Name 'HEATING:DISTRICTCOOLING'
   ** Warning ** In Output:Table:Monthly 'BUILDING ENERGY PERFORMANCE - DISTRICT COOLING' invalid Variable or Meter Name 'COOLING:DISTRICTCOOLING'
   ** Warning ** In Output:Table:Monthly 'BUILDING ENERGY PERFORMANCE - DISTRICT COOLING' invalid Variable or Meter Name 'HEATREJECTION:DISTRICTCOOLING'
   ** Warning ** In Output:Table:Monthly 'BUILDING ENERGY PERFORMANCE - DISTRICT COOLING' invalid Variable or Meter Name 'HUMIDIFIER:DISTRICTCOOLING'
   ** Warning ** In Output:Table:Monthly 'BUILDING ENERGY PERFORMANCE - DISTRICT COOLING' invalid Variable or Meter Name 'HEATRECOVERY:DISTRICTCOOLING'
   ** Warning ** In Output:Table:Monthly 'BUILDING ENERGY PERFORMANCE - DISTRICT COOLING' invalid Variable or Meter Name 'WATERSYSTEMS:DISTRICTCOOLING'
   ** Warning ** In Output:Table:Monthly 'BUILDING ENERGY PERFORMANCE - DISTRICT COOLING' invalid Variable or Meter Name 'COGENERATION:DISTRICTCOOLING'
   ** Warning ** In Output:Table:Monthly 'BUILDING ENERGY PERFORMANCE - ELECTRICITY PEAK DEMAND' invalid Variable or Meter Name 'EXTERIOREQUIPMENT:ELECTRICITY'
   ** Warning ** In Output:Table:Monthly 'BUILDING ENERGY PERFORMANCE - ELECTRICITY PEAK DEMAND' invalid Variable or Meter Name 'HEATREJECTION:ELECTRICITY'
   ** Warning ** In Output:Table:Monthly 'BUILDING ENERGY PERFORMANCE - ELECTRICITY PEAK DEMAND' invalid Variable or Meter Name 'HUMIDIFIER:ELECTRICITY'
   ** Warning ** In Output:Table:Monthly 'BUILDING ENERGY PERFORMANCE - ELECTRICITY PEAK DEMAND' invalid Variable or Meter Name 'HEATRECOVERY:ELECTRICITY'
   ** Warning ** In Output:Table:Monthly 'BUILDING ENERGY PERFORMANCE - ELECTRICITY PEAK DEMAND' invalid Variable or Meter Name 'COGENERATION:ELECTRICITY'
   ** Warning ** In Output:Table:Monthly 'BUILDING ENERGY PERFORMANCE - NATURAL GAS PEAK DEMAND' invalid Variable or Meter Name 'INTERIOREQUIPMENT:NATURALGAS'
   ** Warning ** In Output:Table:Monthly 'BUILDING ENERGY PERFORMANCE - NATURAL GAS PEAK DEMAND' invalid Variable or Meter Name 'EXTERIOREQUIPMENT:NATURALGAS'
   ** Warning ** In Output:Table:Monthly 'BUILDING ENERGY PERFORMANCE - NATURAL GAS PEAK DEMAND' invalid Variable or Meter Name 'COOLING:NATURALGAS'
   ** Warning ** In Output:Table:Monthly 'BUILDING ENERGY PERFORMANCE - NATURAL GAS PEAK DEMAND' invalid Variable or Meter Name 'WATERSYSTEMS:NATURALGAS'
   ** Warning ** In Output:Table:Monthly 'BUILDING ENERGY PERFORMANCE - NATURAL GAS PEAK DEMAND' invalid Variable or Meter Name 'COGENERATION:NATURALGAS'
   ** Warning ** In Output:Table:Monthly 'BUILDING ENERGY PERFORMANCE - DISTRICT HEATING PEAK DEMAND' invalid Variable or Meter Name 'DISTRICTHEATING:FACILITY'
   ** Warning ** In Output:Table:Monthly 'BUILDING ENERGY PERFORMANCE - DISTRICT HEATING PEAK DEMAND' invalid Variable or Meter Name 'INTERIORLIGHTS:DISTRICTHEATING'
   ** Warning ** In Output:Table:Monthly 'BUILDING ENERGY PERFORMANCE - DISTRICT HEATING PEAK DEMAND' invalid Variable or Meter Name 'EXTERIORLIGHTS:DISTRICTHEATING'
   ** Warning ** In Output:Table:Monthly 'BUILDING ENERGY PERFORMANCE - DISTRICT HEATING PEAK DEMAND' invalid Variable or Meter Name 'INTERIOREQUIPMENT:DISTRICTHEATING'
   ** Warning ** In Output:Table:Monthly 'BUILDING ENERGY PERFORMANCE - DISTRICT HEATING PEAK DEMAND' invalid Variable or Meter Name 'EXTERIOREQUIPMENT:DISTRICTHEATING'
   ** Warning ** In Output:Table:Monthly 'BUILDING ENERGY PERFORMANCE - DISTRICT HEATING PEAK DEMAND' invalid Variable or Meter Name 'FANS:DISTRICTHEATING'
   ** Warning ** In Output:Table:Monthly 'BUILDING ENERGY PERFORMANCE - DISTRICT HEATING PEAK DEMAND' invalid Variable or Meter Name 'PUMPS:DISTRICTHEATING'
   ** Warning ** In Output:Table:Monthly 'BUILDING ENERGY PERFORMANCE - DISTRICT HEATING PEAK DEMAND' invalid Variable or Meter Name 'HEATING:DISTRICTHEATING'
   ** Warning ** In Output:Table:Monthly 'BUILDING ENERGY PERFORMANCE - DISTRICT HEATING PEAK DEMAND' invalid Variable or Meter Name 'COOLING:DISTRICTHEATING'
   ** Warning ** In Output:Table:Monthly 'BUILDING ENERGY PERFORMANCE - DISTRICT HEATING PEAK DEMAND' invalid Variable or Meter Name 'HEATREJECTION:DISTRICTHEATING'
   ** Warning ** In Output:Table:Monthly 'BUILDING ENERGY PERFORMANCE - DISTRICT HEATING PEAK DEMAND' invalid Variable or Meter Name 'HUMIDIFIER:DISTRICTHEATING'
   ** Warning ** In Output:Table:Monthly 'BUILDING ENERGY PERFORMANCE - DISTRICT HEATING PEAK DEMAND' invalid Variable or Meter Name 'HEATRECOVERY:DISTRICTHEATING'
   ** Warning ** In Output:Table:Monthly 'BUILDING ENERGY PERFORMANCE - DISTRICT HEATING PEAK DEMAND' invalid Variable or Meter Name 'WATERSYSTEMS:DISTRICTHEATING'
   ** Warning ** In Output:Table:Monthly 'BUILDING ENERGY PERFORMANCE - DISTRICT HEATING PEAK DEMAND' invalid Variable or Meter Name 'COGENERATION:DISTRICTHEATING'
   ** Warning ** In Output:Table:Monthly 'BUILDING ENERGY PERFORMANCE - DISTRICT COOLING PEAK DEMAND' invalid Variable or Meter Name 'DISTRICTCOOLING:FACILITY'
   ** Warning ** In Output:Table:Monthly 'BUILDING ENERGY PERFORMANCE - DISTRICT COOLING PEAK DEMAND' invalid Variable or Meter Name 'INTERIORLIGHTS:DISTRICTCOOLING'
   ** Warning ** In Output:Table:Monthly 'BUILDING ENERGY PERFORMANCE - DISTRICT COOLING PEAK DEMAND' invalid Variable or Meter Name 'EXTERIORLIGHTS:DISTRICTCOOLING'
   ** Warning ** In Output:Table:Monthly 'BUILDING ENERGY PERFORMANCE - DISTRICT COOLING PEAK DEMAND' invalid Variable or Meter Name 'INTERIOREQUIPMENT:DISTRICTCOOLING'
   ** Warning ** In Output:Table:Monthly 'BUILDING ENERGY PERFORMANCE - DISTRICT COOLING PEAK DEMAND' invalid Variable or Meter Name 'EXTERIOREQUIPMENT:DISTRICTCOOLING'
   ** Warning ** In Output:Table:Monthly 'BUILDING ENERGY PERFORMANCE - DISTRICT COOLING PEAK DEMAND' invalid Variable or Meter Name 'FANS:DISTRICTCOOLING'
   ** Warning ** In Output:Table:Monthly 'BUILDING ENERGY PERFORMANCE - DISTRICT COOLING PEAK DEMAND' invalid Variable or Meter Name 'PUMPS:DISTRICTCOOLING'
   ** Warning ** In Output:Table:Monthly 'BUILDING ENERGY PERFORMANCE - DISTRICT COOLING PEAK DEMAND' invalid Variable or Meter Name 'HEATING:DISTRICTCOOLING'
   ** Warning ** In Output:Table:Monthly 'BUILDING ENERGY PERFORMANCE - DISTRICT COOLING PEAK DEMAND' invalid Variable or Meter Name 'COOLING:DISTRICTCOOLING'
   ** Warning ** In Output:Table:Monthly 'BUILDING ENERGY PERFORMANCE - DISTRICT COOLING PEAK DEMAND' invalid Variable or Meter Name 'HEATREJECTION:DISTRICTCOOLING'
   ** Warning ** In Output:Table:Monthly 'BUILDING ENERGY PERFORMANCE - DISTRICT COOLING PEAK DEMAND' invalid Variable or Meter Name 'HUMIDIFIER:DISTRICTCOOLING'
   ** Warning ** In Output:Table:Monthly 'BUILDING ENERGY PERFORMANCE - DISTRICT COOLING PEAK DEMAND' invalid Variable or Meter Name 'HEATRECOVERY:DISTRICTCOOLING'
   ** Warning ** In Output:Table:Monthly 'BUILDING ENERGY PERFORMANCE - DISTRICT COOLING PEAK DEMAND' invalid Variable or Meter Name 'WATERSYSTEMS:DISTRICTCOOLING'
   ** Warning ** In Output:Table:Monthly 'BUILDING ENERGY PERFORMANCE - DISTRICT COOLING PEAK DEMAND' invalid Variable or Meter Name 'COGENERATION:DISTRICTCOOLING'
   ** Warning ** Processing Monthly Tabular Reports: Variable names not valid for this simulation
   **   ~~~   ** ...use Output:Diagnostics,DisplayExtraWarnings; to show more details on individual variables.
   ** Warning ** SimHVAC: Maximum iterations (20) exceeded for all HVAC loops, at RUN PERIOD 1, 08/21 16:20 - 16:30
   **   ~~~   ** The solution for one or more of the Air Loop HVAC systems did not appear to converge
   **   ~~~   ** ...use Output:Diagnostics,DisplayExtraWarnings; to show more details on each max iteration exceeded.
   ** Warning ** The resource referenced by LifeCycleCost:UsePriceEscalation= "U.S. AVG  COMMERCIAL-ELECTRICITY" has no energy cost. 
   **   ~~~   ** ... It is likely that the wrong resource is used. The resource should match the meter used in Utility:Tariff.
   ** Warning ** The resource referenced by LifeCycleCost:UsePriceEscalation= "U.S. AVG  COMMERCIAL-DISTILLATE OIL" has no energy cost. 
   **   ~~~   ** ... It is likely that the wrong resource is used. The resource should match the meter used in Utility:Tariff.
   ** Warning ** The resource referenced by LifeCycleCost:UsePriceEscalation= "U.S. AVG  COMMERCIAL-RESIDUAL OIL" has no energy cost. 
   **   ~~~   ** ... It is likely that the wrong resource is used. The resource should match the meter used in Utility:Tariff.
   ** Warning ** The resource referenced by LifeCycleCost:UsePriceEscalation= "U.S. AVG  COMMERCIAL-NATURAL GAS" has no energy cost. 
   **   ~~~   ** ... It is likely that the wrong resource is used. The resource should match the meter used in Utility:Tariff.
   ** Warning ** The resource referenced by LifeCycleCost:UsePriceEscalation= "U.S. AVG  COMMERCIAL-COAL" has no energy cost. 
   **   ~~~   ** ... It is likely that the wrong resource is used. The resource should match the meter used in Utility:Tariff.
   ************* Simulation Error Summary *************
   ************* There are 14 unused schedules in input.
   ************* There are 23 unused week schedules in input.
   ************* There are 53 unused day schedules in input.
   ************* Use Output:Diagnostics,DisplayUnusedSchedules; to see them.
   *************
   ************* ===== Recurring Error Summary =====
   ************* The following recurring error messages occurred.
   *************
   *************  ** Warning ** Controller:OutdoorAir="ZONE WAREHOUSE FINE A  - STORY GROUND PSZ-AC OA SYSTEM CONTROLLER": Min OA fraction > Mechanical ventilation OA fraction, continues...
   *************  **   ~~~   **   This error occurred 223389 total times;
   *************  **   ~~~   **   during Warmup 0 times;
   *************  **   ~~~   **   during Sizing 0 times.
   *************  **   ~~~   **   Max=0.124132  Min=0.124132
   *************
   *************  ** Warning ** Controller:OutdoorAir="ZONE WAREHOUSE FINE A END_B - STORY GROUND PSZ-AC OA SYSTEM CONTROLLER": Min OA fraction > Mechanical ventilation OA fraction, continues...
   *************  **   ~~~   **   This error occurred 274297 total times;
   *************  **   ~~~   **   during Warmup 0 times;
   *************  **   ~~~   **   during Sizing 0 times.
   *************  **   ~~~   **   Max=7.015728E-002  Min=7.015728E-002
   *************
   *************  ** Warning ** Controller:OutdoorAir="ZONE WAREHOUSE FINE B  - STORY GROUND PSZ-AC OA SYSTEM CONTROLLER": Min OA fraction > Mechanical ventilation OA fraction, continues...
   *************  **   ~~~   **   This error occurred 105621 total times;
   *************  **   ~~~   **   during Warmup 0 times;
   *************  **   ~~~   **   during Sizing 0 times.
   *************  **   ~~~   **   Max=0.218134  Min=0.218134
   *************
   *************  ** Warning ** Controller:OutdoorAir="ZONE WAREHOUSE FINE B END_B - STORY GROUND PSZ-AC OA SYSTEM CONTROLLER": Min OA fraction > Mechanical ventilation OA fraction, continues...
   *************  **   ~~~   **   This error occurred 254127 total times;
   *************  **   ~~~   **   during Warmup 0 times;
   *************  **   ~~~   **   during Sizing 0 times.
   *************  **   ~~~   **   Max=0.127654  Min=0.127654
   *************
   *************  ** Warning ** Controller:OutdoorAir="ZONE WAREHOUSE FINE C  - STORY GROUND PSZ-AC OA SYSTEM CONTROLLER": Min OA fraction > Mechanical ventilation OA fraction, continues...
   *************  **   ~~~   **   This error occurred 241847 total times;
   *************  **   ~~~   **   during Warmup 0 times;
   *************  **   ~~~   **   during Sizing 0 times.
   *************  **   ~~~   **   Max=0.124139  Min=0.124139
   *************
   *************  ** Warning ** Controller:OutdoorAir="ZONE WAREHOUSE FINE C END_B - STORY GROUND PSZ-AC OA SYSTEM CONTROLLER": Min OA fraction > Mechanical ventilation OA fraction, continues...
   *************  **   ~~~   **   This error occurred 286107 total times;
   *************  **   ~~~   **   during Warmup 0 times;
   *************  **   ~~~   **   during Sizing 0 times.
   *************  **   ~~~   **   Max=7.016292E-002  Min=7.016292E-002
   *************
   *************  ** Warning ** Controller:OutdoorAir="ZONE WAREHOUSE OFFICE A  - STORY GROUND PSZ-AC OA SYSTEM CONTROLLER": Min OA fraction > Mechanical ventilation OA fraction, continues...
   *************  **   ~~~   **   This error occurred 135851 total times;
   *************  **   ~~~   **   during Warmup 0 times;
   *************  **   ~~~   **   during Sizing 0 times.
   *************  **   ~~~   **   Max=3.491917E-002  Min=3.491917E-002
   *************
   *************  ** Warning ** Controller:OutdoorAir="ZONE WAREHOUSE OFFICE B  - STORY GROUND PSZ-AC OA SYSTEM CONTROLLER": Min OA fraction > Mechanical ventilation OA fraction, continues...
   *************  **   ~~~   **   This error occurred 109351 total times;
   *************  **   ~~~   **   during Warmup 0 times;
   *************  **   ~~~   **   during Sizing 0 times.
   *************  **   ~~~   **   Max=3.527670E-002  Min=3.527670E-002
   *************
   *************  ** Warning ** Controller:OutdoorAir="ZONE WAREHOUSE OFFICE C  - STORY GROUND PSZ-AC OA SYSTEM CONTROLLER": Min OA fraction > Mechanical ventilation OA fraction, continues...
   *************  **   ~~~   **   This error occurred 141775 total times;
   *************  **   ~~~   **   during Warmup 0 times;
   *************  **   ~~~   **   during Sizing 0 times.
   *************  **   ~~~   **   Max=3.839087E-002  Min=3.839087E-002
   *************
   *************
   ************* ===== Final Error Summary =====
   ************* The following error categories occurred.  Consider correcting or noting.
   ************* Nominally Unused Constructions
   ************* ..The nominally unused constructions warning is provided to alert you to potential conditions that can cause
   ************* ..extra time during simulation. Each construction is calculated by the algorithm indicated in the HeatBalanceAlgorithm
   ************* ..object. You may remove the constructions indicated (when you use the DisplayExtraWarnings option).
   *************
   ************* EnergyPlus Warmup Error Summary. During Warmup: 0 Warning; 0 Severe Errors.
   ************* EnergyPlus Sizing Error Summary. During Sizing: 30 Warning; 1 Severe Errors.
   ************* EnergyPlus Completed Successfully-- 1772623 Warning; 1 Severe Errors; Elapsed Time=00hr 00min 40.61sec
