Program Version,EnergyPlus, Version 22.2.0-aa78da9668, YMD=2023.04.20 10:14
! <Version>, Version ID
 Version, 22.2
! <Timesteps per Hour>, #TimeSteps, Minutes per TimeStep {minutes}
 Timesteps per Hour,  6, 10
! <System Convergence Limits>, Minimum System TimeStep {minutes}, Max HVAC Iterations, Minimum Plant Iterations, Maximum Plant Iterations
 System Convergence Limits, 1, 20, 2, 8
! <Simulation Control>, Do Zone Sizing, Do System Sizing, Do Plant Sizing, Do Design Days, Do Weather Simulation, Do HVAC Sizing Simulation
 Simulation Control, Yes, Yes, Yes, Yes, No, Yes
! <Performance Precision Tradeoffs>, Use Coil Direct Simulation, Zone Radiant Exchange Algorithm, Override Mode, Number of Timestep In Hour, Force Euler Method, Minimum Number of Warmup Days, Force Suppress All Begin Environment Resets, Minimum System Timestep, MaxZoneTempDiff, MaxAllowedDelTemp
 Performance Precision Tradeoffs, No, ScriptF, Normal, 6, No, 1, No, 1.0, 0.300, 2.0000E-003
! <Output Reporting Tolerances>, Tolerance for Time Heating Setpoint Not Met, Tolerance for Zone Cooling Setpoint Not Met Time
 Output Reporting Tolerances, 0.200, 0.200, 
! <Site:GroundTemperature:BuildingSurface>,Jan{C},Feb{C},Mar{C},Apr{C},May{C},Jun{C},Jul{C},Aug{C},Sep{C},Oct{C},Nov{C},Dec{C}
 Site:GroundTemperature:BuildingSurface,  18.00,  18.00,  18.00,  18.00,  18.00,  18.00,  18.00,  18.00,  18.00,  18.00,  18.00,  18.00
! <Site:GroundTemperature:FCfactorMethod>,Jan{C},Feb{C},Mar{C},Apr{C},May{C},Jun{C},Jul{C},Aug{C},Sep{C},Oct{C},Nov{C},Dec{C}
 Site:GroundTemperature:FCfactorMethod,  -3.10, -17.70, -19.30, -17.60, -15.40, -10.30,   0.70,  10.60,  16.00,  16.90,  14.20,   6.70
! <Site:GroundTemperature:Shallow>,Jan{C},Feb{C},Mar{C},Apr{C},May{C},Jun{C},Jul{C},Aug{C},Sep{C},Oct{C},Nov{C},Dec{C}
 Site:GroundTemperature:Shallow,  13.00,  13.00,  13.00,  13.00,  13.00,  13.00,  13.00,  13.00,  13.00,  13.00,  13.00,  13.00
! <Site:GroundTemperature:Deep>,Jan{C},Feb{C},Mar{C},Apr{C},May{C},Jun{C},Jul{C},Aug{C},Sep{C},Oct{C},Nov{C},Dec{C}
 Site:GroundTemperature:Deep,  16.00,  16.00,  16.00,  16.00,  16.00,  16.00,  16.00,  16.00,  16.00,  16.00,  16.00,  16.00
! <Site:GroundReflectance>,Jan{dimensionless},Feb{dimensionless},Mar{dimensionless},Apr{dimensionless},May{dimensionless},Jun{dimensionless},Jul{dimensionless},Aug{dimensionless},Sep{dimensionless},Oct{dimensionless},Nov{dimensionless},Dec{dimensionless}
 Site:GroundReflectance,  0.20,  0.20,  0.20,  0.20,  0.20,  0.20,  0.20,  0.20,  0.20,  0.20,  0.20,  0.20
! <Site:GroundReflectance:SnowModifier>, Normal, Daylighting {dimensionless}
 Site:GroundReflectance:SnowModifier,   1.000,   1.000
! <Site:GroundReflectance:Snow>,Jan{dimensionless},Feb{dimensionless},Mar{dimensionless},Apr{dimensionless},May{dimensionless},Jun{dimensionless},Jul{dimensionless},Aug{dimensionless},Sep{dimensionless},Oct{dimensionless},Nov{dimensionless},Dec{dimensionless}
 Site:GroundReflectance:Snow,  0.20,  0.20,  0.20,  0.20,  0.20,  0.20,  0.20,  0.20,  0.20,  0.20,  0.20,  0.20
! <Site:GroundReflectance:Snow:Daylighting>,Jan{dimensionless},Feb{dimensionless},Mar{dimensionless},Apr{dimensionless},May{dimensionless},Jun{dimensionless},Jul{dimensionless},Aug{dimensionless},Sep{dimensionless},Oct{dimensionless},Nov{dimensionless},Dec{dimensionless}
 Site:GroundReflectance:Snow:Daylighting,  0.20,  0.20,  0.20,  0.20,  0.20,  0.20,  0.20,  0.20,  0.20,  0.20,  0.20,  0.20
! <Environment:Weather Station>,Wind Sensor Height Above Ground {m},Wind Speed Profile Exponent {},Wind Speed Profile Boundary Layer Thickness {m},Air Temperature Sensor Height Above Ground {m},Wind Speed Modifier Coefficient-Internal,Temperature Modifier Coefficient-Internal
Environment:Weather Station,10.000,0.140,270.000,1.500,1.586,9.750E-003
! <Site:Location>, Location Name, Latitude {N+/S- Deg}, Longitude {E+/W- Deg},  Time Zone Number {GMT+/-}, Elevation {m},  Standard Pressure at Elevation {Pa}, Standard RhoAir at Elevation
Site:Location,Kodiak AK USA customized weather file WMO#=703500,57.75,-152.49,-9.00,34.00,100917,1.1995
! <Site Water Mains Temperature Information>,Calculation Method{},Water Mains Temperature Schedule Name{},Annual Average Outdoor Air Temperature{C},Maximum Difference In Monthly Average Outdoor Air Temperatures{deltaC},Fixed Default Water Mains Temperature{C}
Site Water Mains Temperature Information,Correlation,NA,-1.53,36.20,NA
! <Building Information>, Building Name,North Axis {deg},Terrain,  Loads Convergence Tolerance Value,Temperature Convergence Tolerance Value,  Solar Distribution,Maximum Number of Warmup Days,Minimum Number of Warmup Days
 Building Information,90.1-2010|Warehouse,0.000,Urban,4.00000E-002,0.20000,FullInteriorAndExterior,25,6
! <Inside Convection Algorithm>, Algorithm {Simple | TARP | CeilingDiffuser | AdaptiveConvectionAlgorithm}
Inside Convection Algorithm,TARP
! <Outside Convection Algorithm>, Algorithm {SimpleCombined | TARP | MoWitt | DOE-2 | AdaptiveConvectionAlgorithm}
Outside Convection Algorithm,TARP
! <Sky Radiance Distribution>, Value {Anisotropic}
Sky Radiance Distribution,Anisotropic
! <Zone Air Solution Algorithm>, Value {ThirdOrderBackwardDifference | AnalyticalSolution | EulerMethod}
 Zone Air Solution Algorithm, ThirdOrderBackwardDifference
! <Zone Air Carbon Dioxide Balance Simulation>, Simulation {Yes/No}, Carbon Dioxide Concentration
 Zone Air Carbon Dioxide Balance Simulation, No,N/A
! <Zone Air Generic Contaminant Balance Simulation>, Simulation {Yes/No}, Generic Contaminant Concentration
 Zone Air Generic Contaminant Balance Simulation, No,N/A
! <Zone Air Mass Flow Balance Simulation>, Enforce Mass Balance, Adjust Zone Mixing and Return {AdjustMixingOnly | AdjustReturnOnly | AdjustMixingThenReturn | AdjustReturnThenMixing | None}, Adjust Zone Infiltration {AddInfiltration | AdjustInfiltration | None}, Infiltration Zones {MixingSourceZonesOnly | AllZones}
 Zone Air Mass Flow Balance Simulation, No,N/A,N/A,N/A
! <HVACSystemRootFindingAlgorithm>, Value {RegulaFalsi | Bisection | BisectionThenRegulaFalsi | RegulaFalsiThenBisection}
 HVACSystemRootFindingAlgorithm, RegulaFalsi
! <Environment:Site Atmospheric Variation>,Wind Speed Profile Exponent {},Wind Speed Profile Boundary Layer Thickness {m},Air Temperature Gradient Coefficient {K/m}
Environment:Site Atmospheric Variation,0.220,370.000,6.500000E-003
! <Surface Geometry>,Starting Corner,Vertex Input Direction,Coordinate System,Daylight Reference Point Coordinate System,Rectangular (Simple) Surface Coordinate System
 Surface Geometry,UpperLeftCorner,Counterclockwise,RelativeCoordinateSystem,RelativeCoordinateSystem,RelativeToZoneOrigin
! <Surface Heat Transfer Algorithm>, Value {CTF - ConductionTransferFunction | EMPD - MoisturePenetrationDepthConductionTransferFunction | CondFD - ConductionFiniteDifference | HAMT - CombinedHeatAndMoistureFiniteElement} - Description,Inside Surface Max Temperature Limit{C}, Surface Convection Coefficient Lower Limit {W/m2-K}, Surface Convection Coefficient Upper Limit {W/m2-K}
Surface Heat Transfer Algorithm, CTF - ConductionTransferFunction,200,0.10,1000.0
! <Shading Summary>, Number of Fixed Detached Shades, Number of Building Detached Shades, Number of Attached Shades
 Shading Summary,0,0,0
! <Zone Summary>, Number of Zones, Number of Zone Surfaces, Number of SubSurfaces
 Zone Summary,3,20,2
! <Zone Information>,Zone Name,North Axis {deg},Origin X-Coordinate {m},Origin Y-Coordinate {m},Origin Z-Coordinate {m},Centroid X-Coordinate {m},Centroid Y-Coordinate {m},Centroid Z-Coordinate {m},Type,Zone Multiplier,Zone List Multiplier,Minimum X {m},Maximum X {m},Minimum Y {m},Maximum Y {m},Minimum Z {m},Maximum Z {m},Ceiling Height {m},Volume {m3},Zone Inside Convection Algorithm {Simple-Detailed-CeilingDiffuser-TrombeWall},Zone Outside Convection Algorithm {Simple-Detailed-Tarp-MoWitt-DOE-2-BLAST}, Floor Area {m2},Exterior Gross Wall Area {m2},Exterior Net Wall Area {m2},Exterior Window Area {m2}, Number of Surfaces, Number of SubSurfaces, Number of Shading SubSurfaces,  Part of Total Building Area
 Zone Information, ZONE WAREHOUSE BULK  - STORY GROUND,0.0,-6.71,-4.47,0.00,-2.26,1.67E-015,1.83,1,1,1,-6.71,2.18,-4.47,4.47,0.00,3.66,3.66,290.99,TARP,TARP,79.56,97.78,97.78,0.00,6,0,0,Yes
 Zone Information, ZONE WAREHOUSE FINE  - STORY GROUND,0.0,2.84,-4.47,0.00,4.78,1.76E-015,1.83,1,1,1,2.84,6.71,-4.47,4.47,0.00,3.66,3.66,126.53,TARP,TARP,34.59,61.01,61.01,0.00,6,0,0,Yes
 Zone Information, ZONE WAREHOUSE OFFICE  - STORY GROUND,0.0,2.18,-4.47,0.00,2.51,1.77E-015,1.83,1,1,1,2.18,2.84,-4.47,4.47,0.00,3.66,3.66,21.51,TARP,TARP,5.88,4.81,1.39,3.41,6,2,0,Yes
! <Zone Internal Gains Nominal>,Zone Name, Floor Area {m2},# Occupants,Area per Occupant {m2/person},Occupant per Area {person/m2},Interior Lighting {W/m2},Electric Load {W/m2},Gas Load {W/m2},Other Load {W/m2},Hot Water Eq {W/m2},Steam Equipment {W/m2},Sum Loads per Area {W/m2},Outdoor Controlled Baseboard Heat
 Zone Internal Gains Nominal, ZONE WAREHOUSE BULK  - STORY GROUND,79.56,0.0,N/A,0.000,6.243,2.558,0.000,0.000,0.000,0.000,8.801,No
 Zone Internal Gains Nominal, ZONE WAREHOUSE FINE  - STORY GROUND,34.59,0.0,N/A,0.000,10.226,0.000,0.000,0.000,0.000,0.000,10.226,No
 Zone Internal Gains Nominal, ZONE WAREHOUSE OFFICE  - STORY GROUND,5.88,0.1,47.400,2.110E-002,9.688,8.073,0.000,0.000,0.000,0.000,17.760,No
! <People Internal Gains Nominal>,Name,Schedule Name,Zone Name,Zone Floor Area {m2},# Zone Occupants,Number of People {},People/Floor Area {person/m2},Floor Area per person {m2/person},Fraction Radiant,Fraction Convected,Sensible Fraction Calculation,Activity level,ASHRAE 55 Warnings,Carbon Dioxide Generation Rate,Nominal Minimum Number of People,Nominal Maximum Number of People
 People Internal Gains Nominal, WAREHOUSE OFFICE  - STORY GROUND WAREHOUSE OFFICE PEOPLE,WAREHOUSE BLDG_OCC_SCH,ZONE WAREHOUSE OFFICE  - STORY GROUND,5.88,0.1,0.1,2.110E-002,47.400,0.300,0.700,AutoCalculate,WAREHOUSE OFFICE ACTIVITY SCHEDULE,No,3.8200E-008,0,0
! <Lights Internal Gains Nominal>,Name,Schedule Name,Zone Name,Zone Floor Area {m2},# Zone Occupants,Lighting Level {W},Lights/Floor Area {W/m2},Lights per person {W/person},Fraction Return Air,Fraction Radiant,Fraction Short Wave,Fraction Convected,Fraction Replaceable,End-Use Category,Nominal Minimum Lighting Level {W},Nominal Maximum Lighting Level {W}
 Lights Internal Gains Nominal, WAREHOUSE BULK  - STORY GROUND WAREHOUSE BULK LIGHTS,WAREHOUSE BLDG_LIGHT_STORAGE_SCH,ZONE WAREHOUSE BULK  - STORY GROUND,79.56,0.0,496.676,6.243,N/A,0.000,0.420,0.180,0.400,1.000,General,0.000,496.676
 Lights Internal Gains Nominal, WAREHOUSE FINE  - STORY GROUND WAREHOUSE FINE LIGHTS,WAREHOUSE BLDG_LIGHT_STORAGE_SCH,ZONE WAREHOUSE FINE  - STORY GROUND,34.59,0.0,353.737,10.226,N/A,0.000,0.420,0.180,0.400,1.000,General,0.000,353.737
 Lights Internal Gains Nominal, WAREHOUSE OFFICE  - STORY GROUND WAREHOUSE OFFICE LIGHTS,WAREHOUSE BLDG_LIGHT_OFFICE_SCH_2010,ZONE WAREHOUSE OFFICE  - STORY GROUND,5.88,0.1,56.977,9.688,459.184,0.000,0.370,0.180,0.450,1.000,General,0.000,56.977
! <ElectricEquipment Internal Gains Nominal>,Name,Schedule Name,Zone Name,Zone Floor Area {m2},# Zone Occupants,Equipment Level {W},Equipment/Floor Area {W/m2},Equipment per person {W/person},Fraction Latent,Fraction Radiant,Fraction Lost,Fraction Convected,End-Use SubCategory,Nominal Minimum Equipment Level {W},Nominal Maximum Equipment Level {W}
 ElectricEquipment Internal Gains Nominal, WAREHOUSE BULK  - STORY GROUND WAREHOUSE BULK ELEC EQUIP,WAREHOUSE BLDG EQUIP,ZONE WAREHOUSE BULK  - STORY GROUND,79.56,0.0,203.538,2.558,N/A,0.000,0.000,0.000,1.000,General,0.000,203.538
 ElectricEquipment Internal Gains Nominal, WAREHOUSE OFFICE  - STORY GROUND WAREHOUSE OFFICE ELEC EQUIP,WAREHOUSE OFFICE_PLUG_SCH,ZONE WAREHOUSE OFFICE  - STORY GROUND,5.88,0.1,47.481,8.073,382.653,0.000,0.000,0.000,1.000,General,0.000,47.481
! <Shadowing/Sun Position Calculations Annual Simulations>, Shading Calculation Method, Shading Calculation Update Frequency Method, Shading Calculation Update Frequency {days}, Maximum Figures in Shadow Overlap Calculations {}, Polygon Clipping Algorithm, Pixel Counting Resolution, Sky Diffuse Modeling Algorithm, Output External Shading Calculation Results, Disable Self-Shading Within Shading Zone Groups, Disable Self-Shading From Shading Zone Groups to Other Zones
Shadowing/Sun Position Calculations Annual Simulations,PolygonClipping,Periodic,30,15000,SutherlandHodgman,512,SimpleSkyDiffuseModeling,No,No,No
! <Water Heater Information>,Type,Name,Volume {m3},Maximum Capacity {W},Standard Rated Recovery Efficiency, Standard Rated Energy Factor
! <ZoneInfiltration Airflow Stats Nominal>,Name,Schedule Name,Zone Name, Zone Floor Area {m2}, # Zone Occupants,Design Volume Flow Rate {m3/s},Volume Flow Rate/Floor Area {m3/s-m2},Volume Flow Rate/Exterior Surface Area {m3/s-m2},ACH - Air Changes per Hour,Equation A - Constant Term Coefficient {},Equation B - Temperature Term Coefficient {1/C},Equation C - Velocity Term Coefficient {s/m}, Equation D - Velocity Squared Term Coefficient {s2/m2}
 ZoneInfiltration Airflow Stats Nominal, WAREHOUSE BULK  - STORY GROUND INFILTRATION,ALWAYS ON DISCRETE,ZONE WAREHOUSE BULK  - STORY GROUND,79.56,0.0,5.569E-002,7.000E-004,3.140E-004,0.689,0.000,0.000,0.224,0.000
 ZoneInfiltration Airflow Stats Nominal, WAREHOUSE FINE  - STORY GROUND INFILTRATION,ALWAYS ON DISCRETE,ZONE WAREHOUSE FINE  - STORY GROUND,34.59,0.0,3.475E-002,1.004E-003,3.635E-004,0.989,0.000,0.000,0.224,0.000
 ZoneInfiltration Airflow Stats Nominal, WAREHOUSE OFFICE  - STORY GROUND INFILTRATION,ALWAYS ON DISCRETE,ZONE WAREHOUSE OFFICE  - STORY GROUND,5.88,0.1,2.739E-003,4.658E-004,2.562E-004,0.458,0.000,0.000,0.224,0.000
! <AirFlow Model>, Simple
 AirFlow Model, Simple
! <RoomAir Model>, Zone Name, Mixing/Mundt/UCSDDV/UCSDCV/UCSDUFI/UCSDUFE/User Defined
RoomAir Model,ZONE WAREHOUSE BULK  - STORY GROUND,Mixing/Well-Stirred
RoomAir Model,ZONE WAREHOUSE FINE  - STORY GROUND,Mixing/Well-Stirred
RoomAir Model,ZONE WAREHOUSE OFFICE  - STORY GROUND,Mixing/Well-Stirred
! <AirflowNetwork Model:Control>, No Multizone or Distribution/Multizone with Distribution/Multizone without Distribution/Multizone with Distribution only during Fan Operation
AirflowNetwork Model:Control,NoMultizoneOrDistribution
! <Zone Volume Capacitance Multiplier>, Sensible Heat Capacity Multiplier, Moisture Capacity Multiplier, Carbon Dioxide Capacity Multiplier, Generic Contaminant Capacity Multiplier
Zone Volume Capacitance Multiplier,   1.000 ,   1.000,   1.000,   1.000
! <Load Timesteps in Zone Design Calculation Averaging Window>, Value
 Load Timesteps in Zone Design Calculation Averaging Window,    6
! <Heating Sizing Factor Information>, Sizing Factor ID, Value
 Heating Sizing Factor Information, Global,   1.2500    
 Heating Sizing Factor Information, Zone ZONE WAREHOUSE BULK  - STORY GROUND,   1.2500    
 Heating Sizing Factor Information, Zone ZONE WAREHOUSE FINE  - STORY GROUND,   1.2500    
 Heating Sizing Factor Information, Zone ZONE WAREHOUSE OFFICE  - STORY GROUND,   1.2500    
! <Cooling Sizing Factor Information>, Sizing Factor ID, Value
 Cooling Sizing Factor Information, Global,   1.1500    
 Cooling Sizing Factor Information, Zone ZONE WAREHOUSE BULK  - STORY GROUND,   1.1500    
 Cooling Sizing Factor Information, Zone ZONE WAREHOUSE FINE  - STORY GROUND,   1.1500    
 Cooling Sizing Factor Information, Zone ZONE WAREHOUSE OFFICE  - STORY GROUND,   1.1500    
! <Zone Sizing Information>, Zone Name, Load Type, Calc Des Load {W}, User Des Load {W}, Calc Des Air Flow Rate {m3/s}, User Des Air Flow Rate {m3/s}, Design Day Name, Date/Time of Peak, Temperature at Peak {C}, Humidity Ratio at Peak {kgWater/kgDryAir}, Floor Area {m2}, # Occupants, Calc Outdoor Air Flow Rate {m3/s}, Calc DOAS Heat Addition Rate {W}
 Zone Sizing Information, ZONE WAREHOUSE BULK  - STORY GROUND, Cooling, 0.00000, 0.00000, 0.00000, 2.42488E-002, KODIAK JULY .4% CONDNS DB=>MCWB, 7/21 15:40:00, 23.98000, 8.28459E-003, 79.55637, 0.00000, 2.42488E-002, 0.00000
 Zone Sizing Information, ZONE WAREHOUSE BULK  - STORY GROUND, Heating, 2598.48143, 3248.10178, 7.08165E-002, 8.85206E-002, KODIAK ANN HTG 99.6% CONDNS DB, 1/21 06:20:00, -12.80000, 1.24844E-003, 79.55637, 0.00000, 2.42488E-002, 0.00000
 Zone Sizing Information, ZONE WAREHOUSE FINE  - STORY GROUND, Cooling, 0.00000, 0.00000, 0.00000, 1.05439E-002, KODIAK JULY .4% CONDNS DB=>MCWB, 7/21 15:50:00, 23.92500, 8.28450E-003, 34.59286, 0.00000, 1.05439E-002, 0.00000
 Zone Sizing Information, ZONE WAREHOUSE FINE  - STORY GROUND, Heating, 2182.66410, 2728.33013, 5.18017E-002, 6.47521E-002, KODIAK ANN HTG 99.6% CONDNS DB, 1/21 06:10:00, -12.80000, 1.24844E-003, 34.59286, 0.00000, 1.05439E-002, 0.00000
 Zone Sizing Information, ZONE WAREHOUSE OFFICE  - STORY GROUND, Cooling, 514.69706, 591.90162, 3.78018E-002, 4.34720E-002, KODIAK AUGUST .4% CONDNS DB=>MCWB, 8/21 15:20:00, 22.47400, 8.70748E-003, 5.88151, 0.12408, 2.08549E-003, 0.00000
 Zone Sizing Information, ZONE WAREHOUSE OFFICE  - STORY GROUND, Heating, 1499.27960, 1874.09950, 4.21626E-002, 5.27032E-002, KODIAK ANN HTG 99.6% CONDNS DB, 1/21 09:00:00, -12.80000, 1.24844E-003, 5.88151, 0.12408, 2.08549E-003, 0.00000
! <System Sizing Information>, System Name, Load Type, Peak Load Kind, User Design Capacity, Calc Des Air Flow Rate [m3/s], User Des Air Flow Rate [m3/s], Design Day Name, Date/Time of Peak
 System Sizing Information, ZONE WAREHOUSE FINE  - STORY GROUND PSZ-AC, Cooling, Sensible, 145.16, 1.05439E-002, 1.05439E-002, KODIAK JULY .4% CONDNS DB=>MCWB, 7/21 05:00:00
 System Sizing Information, ZONE WAREHOUSE FINE  - STORY GROUND PSZ-AC, Heating, Sensible, 3048.88, 6.47521E-002, 6.47521E-002, KODIAK ANN HTG 99.6% CONDNS DB, 1/21 06:10:00
 System Sizing Information, ZONE WAREHOUSE OFFICE  - STORY GROUND PSZ-AC, Cooling, Sensible, 579.17, 4.34720E-002, 4.34720E-002, KODIAK AUGUST .4% CONDNS DB=>MCWB, 8/21 05:00:00
 System Sizing Information, ZONE WAREHOUSE OFFICE  - STORY GROUND PSZ-AC, Heating, Sensible, 1931.11, 5.27032E-002, 5.27032E-002, KODIAK ANN HTG 99.6% CONDNS DB, 1/21 09:00:00
! <Component Sizing Information>, Component Type, Component Name, Input Field Description, Value
 Component Sizing Information, ZONEHVAC:BASEBOARD:CONVECTIVE:ELECTRIC, ZONE WAREHOUSE BULK  - STORY GROUND ELECTRIC BASEBOARD, Design Size Heating Design Capacity [W], 3248.10178
 Component Sizing Information, AirTerminal:SingleDuct:ConstantVolume:NoReheat, ZONE WAREHOUSE FINE  - STORY GROUND PSZ-AC DIFFUSER, Design Size Maximum Air Flow Rate [m3/s], 6.47521E-002
 Component Sizing Information, AirTerminal:SingleDuct:ConstantVolume:NoReheat, ZONE WAREHOUSE OFFICE  - STORY GROUND PSZ-AC DIFFUSER, Design Size Maximum Air Flow Rate [m3/s], 5.27032E-002
 Component Sizing Information, AirLoopHVAC, ZONE WAREHOUSE FINE  - STORY GROUND PSZ-AC, Sum of Air Terminal Maximum Heating Flow Rates [m3/s], 6.47521E-002
 Component Sizing Information, AirLoopHVAC, ZONE WAREHOUSE FINE  - STORY GROUND PSZ-AC, Sum of Air Terminal Minimum Heating Flow Rates [m3/s], 6.47521E-002
 Component Sizing Information, AirLoopHVAC, ZONE WAREHOUSE FINE  - STORY GROUND PSZ-AC, Sum of Air Terminal Maximum Flow Rates [m3/s], 6.47521E-002
 Component Sizing Information, AirLoopHVAC, ZONE WAREHOUSE FINE  - STORY GROUND PSZ-AC, Adjusted Heating Design Air Flow Rate [m3/s], 6.47521E-002
 Component Sizing Information, AirLoopHVAC, ZONE WAREHOUSE FINE  - STORY GROUND PSZ-AC, Adjusted Cooling Design Air Flow Rate [m3/s], 6.47521E-002
 Component Sizing Information, AirLoopHVAC, ZONE WAREHOUSE FINE  - STORY GROUND PSZ-AC, Adjusted Main Design Air Flow Rate [m3/s], 6.47521E-002
 Component Sizing Information, AirLoopHVAC, ZONE WAREHOUSE FINE  - STORY GROUND PSZ-AC, User Heating Air Flow Ratio [], 1.00000
 Component Sizing Information, AirLoopHVAC, ZONE WAREHOUSE FINE  - STORY GROUND PSZ-AC, Calculated Heating Air Flow Ratio [], 1.00000
 Component Sizing Information, AirLoopHVAC, ZONE WAREHOUSE OFFICE  - STORY GROUND PSZ-AC, Sum of Air Terminal Maximum Heating Flow Rates [m3/s], 5.27032E-002
 Component Sizing Information, AirLoopHVAC, ZONE WAREHOUSE OFFICE  - STORY GROUND PSZ-AC, Sum of Air Terminal Minimum Heating Flow Rates [m3/s], 5.27032E-002
 Component Sizing Information, AirLoopHVAC, ZONE WAREHOUSE OFFICE  - STORY GROUND PSZ-AC, Sum of Air Terminal Maximum Flow Rates [m3/s], 5.27032E-002
 Component Sizing Information, AirLoopHVAC, ZONE WAREHOUSE OFFICE  - STORY GROUND PSZ-AC, Adjusted Heating Design Air Flow Rate [m3/s], 5.27032E-002
 Component Sizing Information, AirLoopHVAC, ZONE WAREHOUSE OFFICE  - STORY GROUND PSZ-AC, Adjusted Cooling Design Air Flow Rate [m3/s], 5.27032E-002
 Component Sizing Information, AirLoopHVAC, ZONE WAREHOUSE OFFICE  - STORY GROUND PSZ-AC, Adjusted Main Design Air Flow Rate [m3/s], 5.27032E-002
 Component Sizing Information, AirLoopHVAC, ZONE WAREHOUSE OFFICE  - STORY GROUND PSZ-AC, User Heating Air Flow Ratio [], 1.00000
 Component Sizing Information, AirLoopHVAC, ZONE WAREHOUSE OFFICE  - STORY GROUND PSZ-AC, Calculated Heating Air Flow Ratio [], 1.00000
 Component Sizing Information, AirLoopHVAC, ZONE WAREHOUSE FINE  - STORY GROUND PSZ-AC, Design Supply Air Flow Rate [m3/s], 6.47521E-002
 Component Sizing Information, AirLoopHVAC, ZONE WAREHOUSE OFFICE  - STORY GROUND PSZ-AC, Design Supply Air Flow Rate [m3/s], 5.27032E-002
!<Controller:MechanicalVentilation>,Name,Availability Schedule Name,Demand Controlled Ventilation {Yes/No},System Outdoor Air Method,Zone Maximum Outdoor Air Fraction,Number of Zones,Zone Name,DSOA Name,DSZAD Name
 Controller:MechanicalVentilation,CONTROLLER MECHANICAL VENTILATION 1,ALWAYS ON DISCRETE,No,ZoneSum,1.00,1,ZONE WAREHOUSE FINE  - STORY GROUND,WAREHOUSE FINE VENTILATION,
 Controller:MechanicalVentilation,CONTROLLER MECHANICAL VENTILATION 2,ALWAYS ON DISCRETE,No,ZoneSum,1.00,1,ZONE WAREHOUSE OFFICE  - STORY GROUND,WAREHOUSE OFFICE VENTILATION,
 Component Sizing Information, Controller:OutdoorAir, ZONE WAREHOUSE FINE  - STORY GROUND PSZ-AC OA SYSTEM CONTROLLER, Maximum Outdoor Air Flow Rate [m3/s], 6.47521E-002
 Component Sizing Information, Controller:OutdoorAir, ZONE WAREHOUSE FINE  - STORY GROUND PSZ-AC OA SYSTEM CONTROLLER, Minimum Outdoor Air Flow Rate [m3/s], 1.05439E-002
 Component Sizing Information, AirLoopHVAC:UnitarySystem, ZONE WAREHOUSE FINE  - STORY GROUND PSZ-AC UNITARY AC, Design Size Supply Air Flow Rate [m3/s], 6.47521E-002
 Component Sizing Information, AirLoopHVAC:UnitarySystem, ZONE WAREHOUSE FINE  - STORY GROUND PSZ-AC UNITARY AC, Design Size Heating Supply Air Flow Rate [m3/s], 6.47521E-002
 Component Sizing Information, AirLoopHVAC:UnitarySystem, ZONE WAREHOUSE FINE  - STORY GROUND PSZ-AC UNITARY AC, Design Size Cooling Supply Air Flow Rate [m3/s], 6.47521E-002
 Component Sizing Information, AirLoopHVAC:UnitarySystem, ZONE WAREHOUSE FINE  - STORY GROUND PSZ-AC UNITARY AC, User-Specified No Load Supply Air Flow Rate [m3/s], 0.00000
 Component Sizing Information, AirLoopHVAC:UnitarySystem, ZONE WAREHOUSE FINE  - STORY GROUND PSZ-AC UNITARY AC, Design Size Nominal Cooling Capacity [W], 1071.87724
 Component Sizing Information, AirLoopHVAC:UnitarySystem, ZONE WAREHOUSE FINE  - STORY GROUND PSZ-AC UNITARY AC, Design Size Nominal Heating Capacity [W], 3048.88447
 Component Sizing Information, AirLoopHVAC:UnitarySystem, ZONE WAREHOUSE FINE  - STORY GROUND PSZ-AC UNITARY AC, Design Size Maximum Supply Air Temperature [C], 50.00000
 Component Sizing Information, AirLoopHVAC:UnitarySystem, ZONE WAREHOUSE FINE  - STORY GROUND PSZ-AC UNITARY AC, User-Specified Maximum Supply Air Temperature [C], 80.00000
 Component Sizing Information, AirLoopHVAC:UnitarySystem, ZONE WAREHOUSE FINE  - STORY GROUND PSZ-AC UNITARY AC, User-Specified Supplemental Heating Coil Nominal Capacity [W], 0.00000
 Component Sizing Information, AirLoopHVAC:UnitarySystem, ZONE WAREHOUSE FINE  - STORY GROUND PSZ-AC UNITARY AC, Fraction of Supply Air Flow That Goes Through the Controlling Zone, 1.00000
 Component Sizing Information, Coil:Cooling:DX:SingleSpeed, ZONE WAREHOUSE FINE  - STORY GROUND PSZ-AC 1SPD DX AC CLG COIL, Design Size Rated Air Flow Rate [m3/s], 6.47521E-002
 Component Sizing Information, Coil:Cooling:DX:SingleSpeed, ZONE WAREHOUSE FINE  - STORY GROUND PSZ-AC 1SPD DX AC CLG COIL, Design Size Gross Rated Total Cooling Capacity [W], 1071.87724
 Component Sizing Information, Coil:Cooling:DX:SingleSpeed, ZONE WAREHOUSE FINE  - STORY GROUND PSZ-AC 1SPD DX AC CLG COIL, Design Size Gross Rated Sensible Heat Ratio, 0.80066
! <DX Cooling Coil Standard Rating Information>, Component Type, Component Name, Standard Rating (Net) Cooling Capacity {W}, Standard Rated Net COP {W/W}, EER {Btu/W-h}, SEER User {Btu/W-h}, SEER Standard {Btu/W-h}, IEER {Btu/W-h}
 DX Cooling Coil Standard Rating Information, Coil:Cooling:DX:SingleSpeed, ZONE WAREHOUSE FINE  - STORY GROUND PSZ-AC 1SPD DX AC CLG COIL, 1021.7, 2.51, 8.56, 9.83, 8.99, 9.37
 DX Cooling Coil Standard Rating Information, Coil:Cooling:DX:SingleSpeed, ZONE WAREHOUSE FINE  - STORY GROUND PSZ-AC 1SPD DX AC CLG COIL, 1011.3, 2.42, 8.26, 9.46, 8.90,  
 Component Sizing Information, Coil:Heating:Electric, ZONE WAREHOUSE FINE  - STORY GROUND PSZ-AC ELECTRIC HTG COIL, Design Size Nominal Capacity [W], 3048.88447
 Component Sizing Information, Fan:OnOff, ZONE WAREHOUSE FINE  - STORY GROUND PSZ-AC FAN, Design Size Maximum Flow Rate [m3/s], 6.47521E-002
 Component Sizing Information, Coil:Heating:Electric, ZONE WAREHOUSE FINE  - STORY GROUND PSZ-AC NO HEAT, User-Specified Nominal Capacity [W], 0.00000
 Component Sizing Information, Controller:OutdoorAir, ZONE WAREHOUSE OFFICE  - STORY GROUND PSZ-AC OA SYSTEM CONTROLLER, Maximum Outdoor Air Flow Rate [m3/s], 5.27032E-002
 Component Sizing Information, Controller:OutdoorAir, ZONE WAREHOUSE OFFICE  - STORY GROUND PSZ-AC OA SYSTEM CONTROLLER, Minimum Outdoor Air Flow Rate [m3/s], 2.08549E-003
 Component Sizing Information, AirLoopHVAC:UnitarySystem, ZONE WAREHOUSE OFFICE  - STORY GROUND PSZ-AC UNITARY AC, Design Size Supply Air Flow Rate [m3/s], 5.27032E-002
 Component Sizing Information, AirLoopHVAC:UnitarySystem, ZONE WAREHOUSE OFFICE  - STORY GROUND PSZ-AC UNITARY AC, Design Size Heating Supply Air Flow Rate [m3/s], 5.27032E-002
 Component Sizing Information, AirLoopHVAC:UnitarySystem, ZONE WAREHOUSE OFFICE  - STORY GROUND PSZ-AC UNITARY AC, Design Size Cooling Supply Air Flow Rate [m3/s], 5.27032E-002
 Component Sizing Information, AirLoopHVAC:UnitarySystem, ZONE WAREHOUSE OFFICE  - STORY GROUND PSZ-AC UNITARY AC, User-Specified No Load Supply Air Flow Rate [m3/s], 0.00000
 Component Sizing Information, AirLoopHVAC:UnitarySystem, ZONE WAREHOUSE OFFICE  - STORY GROUND PSZ-AC UNITARY AC, Design Size Nominal Cooling Capacity [W], 872.42562
 Component Sizing Information, AirLoopHVAC:UnitarySystem, ZONE WAREHOUSE OFFICE  - STORY GROUND PSZ-AC UNITARY AC, Design Size Nominal Heating Capacity [W], 1931.11017
 Component Sizing Information, AirLoopHVAC:UnitarySystem, ZONE WAREHOUSE OFFICE  - STORY GROUND PSZ-AC UNITARY AC, Design Size Maximum Supply Air Temperature [C], 50.00000
 Component Sizing Information, AirLoopHVAC:UnitarySystem, ZONE WAREHOUSE OFFICE  - STORY GROUND PSZ-AC UNITARY AC, User-Specified Maximum Supply Air Temperature [C], 80.00000
 Component Sizing Information, AirLoopHVAC:UnitarySystem, ZONE WAREHOUSE OFFICE  - STORY GROUND PSZ-AC UNITARY AC, User-Specified Supplemental Heating Coil Nominal Capacity [W], 0.00000
 Component Sizing Information, AirLoopHVAC:UnitarySystem, ZONE WAREHOUSE OFFICE  - STORY GROUND PSZ-AC UNITARY AC, Fraction of Supply Air Flow That Goes Through the Controlling Zone, 1.00000
 Component Sizing Information, Coil:Cooling:DX:SingleSpeed, ZONE WAREHOUSE OFFICE  - STORY GROUND PSZ-AC 1SPD DX AC CLG COIL, Design Size Rated Air Flow Rate [m3/s], 5.27032E-002
 Component Sizing Information, Coil:Cooling:DX:SingleSpeed, ZONE WAREHOUSE OFFICE  - STORY GROUND PSZ-AC 1SPD DX AC CLG COIL, Design Size Gross Rated Total Cooling Capacity [W], 872.42562
 Component Sizing Information, Coil:Cooling:DX:SingleSpeed, ZONE WAREHOUSE OFFICE  - STORY GROUND PSZ-AC 1SPD DX AC CLG COIL, Design Size Gross Rated Sensible Heat Ratio, 0.80066
 DX Cooling Coil Standard Rating Information, Coil:Cooling:DX:SingleSpeed, ZONE WAREHOUSE OFFICE  - STORY GROUND PSZ-AC 1SPD DX AC CLG COIL, 831.6, 2.51, 8.56, 9.83, 8.99, 9.37
 DX Cooling Coil Standard Rating Information, Coil:Cooling:DX:SingleSpeed, ZONE WAREHOUSE OFFICE  - STORY GROUND PSZ-AC 1SPD DX AC CLG COIL, 823.1, 2.42, 8.26, 9.46, 8.90,  
 Component Sizing Information, Coil:Heating:Electric, ZONE WAREHOUSE OFFICE  - STORY GROUND PSZ-AC ELECTRIC HTG COIL, Design Size Nominal Capacity [W], 1931.11017
 Component Sizing Information, Fan:OnOff, ZONE WAREHOUSE OFFICE  - STORY GROUND PSZ-AC FAN, Design Size Maximum Flow Rate [m3/s], 5.27032E-002
 Component Sizing Information, Coil:Heating:Electric, ZONE WAREHOUSE OFFICE  - STORY GROUND PSZ-AC NO HEAT, User-Specified Nominal Capacity [W], 0.00000
Water Heater Information,WaterHeater:Mixed,40GAL ELECTRICITY WATER HEATER - 40KBTU/HR 1.0 THERM EFF,0.1514,11722.8,0.981,0.4610
 Component Sizing Information, PlantLoop, MAIN SERVICE WATER LOOP, Initial Maximum Loop Flow Rate [m3/s], 0.00000
 Component Sizing Information, PlantLoop, MAIN SERVICE WATER LOOP, Initial Plant Loop Volume [m3], 0.00000
 Component Sizing Information, Pump:VariableSpeed, MAIN SERVICE WATER LOOP WATER MAINS PRESSURE DRIVEN, Initial Design Flow Rate [m3/s], -99999.00000
 Component Sizing Information, Pump:VariableSpeed, MAIN SERVICE WATER LOOP WATER MAINS PRESSURE DRIVEN, Initial Design Power Consumption [W], 0.00000
 Component Sizing Information, WaterHeater:Mixed, 40GAL ELECTRICITY WATER HEATER - 40KBTU/HR 1.0 THERM EFF, Initial Use Side Design Flow Rate [m3/s], 0.00000
! <Environment>,Environment Name,Environment Type, Start Date, End Date, Start DayOfWeek, Duration {#days}, Source:Start DayOfWeek,  Use Daylight Saving, Use Holidays, Apply Weekend Holiday Rule,  Use Rain Values, Use Snow Values, Sky Temperature Model
! <Environment:Special Days>, Special Day Name, Special Day Type, Source, Start Date, Duration {#days}
! <Environment:Daylight Saving>, Daylight Saving Indicator, Source, Start Date, End Date
! <Environment:WarmupDays>, NumberofWarmupDays
Environment,KODIAK ANN CLG .4% CONDNS DB=>MWB,SizingPeriod:DesignDay,08/21,08/21,SummerDesignDay,1,N/A,N/A,N/A,N/A,N/A,N/A,Clark and Allen
Environment:Daylight Saving,No,SizingPeriod:DesignDay
Environment,KODIAK ANN CLG .4% CONDNS WB=>MDB,SizingPeriod:DesignDay,08/21,08/21,SummerDesignDay,1,N/A,N/A,N/A,N/A,N/A,N/A,Clark and Allen
Environment:Daylight Saving,No,SizingPeriod:DesignDay
Environment,KODIAK ANN HTG 99.6% CONDNS DB,SizingPeriod:DesignDay,01/21,01/21,WinterDesignDay,1,N/A,N/A,N/A,N/A,N/A,N/A,Clark and Allen
Environment:Daylight Saving,No,SizingPeriod:DesignDay
Environment,KODIAK APRIL .4% CONDNS DB=>MCWB,SizingPeriod:DesignDay,04/21,04/21,SummerDesignDay,1,N/A,N/A,N/A,N/A,N/A,N/A,Clark and Allen
Environment:Daylight Saving,No,SizingPeriod:DesignDay
Environment,KODIAK APRIL .4% CONDNS WB=>MCDB,SizingPeriod:DesignDay,04/21,04/21,SummerDesignDay,1,N/A,N/A,N/A,N/A,N/A,N/A,Clark and Allen
Environment:Daylight Saving,No,SizingPeriod:DesignDay
Environment,KODIAK AUGUST .4% CONDNS DB=>MCWB,SizingPeriod:DesignDay,08/21,08/21,SummerDesignDay,1,N/A,N/A,N/A,N/A,N/A,N/A,Clark and Allen
Environment:Daylight Saving,No,SizingPeriod:DesignDay
Environment,KODIAK AUGUST .4% CONDNS WB=>MCDB,SizingPeriod:DesignDay,08/21,08/21,SummerDesignDay,1,N/A,N/A,N/A,N/A,N/A,N/A,Clark and Allen
Environment:Daylight Saving,No,SizingPeriod:DesignDay
Environment,KODIAK DECEMBER .4% CONDNS DB=>MCWB,SizingPeriod:DesignDay,12/21,12/21,SummerDesignDay,1,N/A,N/A,N/A,N/A,N/A,N/A,Clark and Allen
Environment:Daylight Saving,No,SizingPeriod:DesignDay
Environment,KODIAK DECEMBER .4% CONDNS WB=>MCDB,SizingPeriod:DesignDay,12/21,12/21,SummerDesignDay,1,N/A,N/A,N/A,N/A,N/A,N/A,Clark and Allen
Environment:Daylight Saving,No,SizingPeriod:DesignDay
Environment,KODIAK FEBRUARY .4% CONDNS DB=>MCWB,SizingPeriod:DesignDay,02/21,02/21,SummerDesignDay,1,N/A,N/A,N/A,N/A,N/A,N/A,Clark and Allen
Environment:Daylight Saving,No,SizingPeriod:DesignDay
Environment,KODIAK FEBRUARY .4% CONDNS WB=>MCDB,SizingPeriod:DesignDay,02/21,02/21,SummerDesignDay,1,N/A,N/A,N/A,N/A,N/A,N/A,Clark and Allen
Environment:Daylight Saving,No,SizingPeriod:DesignDay
Environment,KODIAK JANUARY .4% CONDNS DB=>MCWB,SizingPeriod:DesignDay,01/21,01/21,SummerDesignDay,1,N/A,N/A,N/A,N/A,N/A,N/A,Clark and Allen
Environment:Daylight Saving,No,SizingPeriod:DesignDay
Environment,KODIAK JANUARY .4% CONDNS WB=>MCDB,SizingPeriod:DesignDay,01/21,01/21,SummerDesignDay,1,N/A,N/A,N/A,N/A,N/A,N/A,Clark and Allen
Environment:Daylight Saving,No,SizingPeriod:DesignDay
Environment,KODIAK JULY .4% CONDNS DB=>MCWB,SizingPeriod:DesignDay,07/21,07/21,SummerDesignDay,1,N/A,N/A,N/A,N/A,N/A,N/A,Clark and Allen
Environment:Daylight Saving,No,SizingPeriod:DesignDay
Environment,KODIAK JULY .4% CONDNS WB=>MCDB,SizingPeriod:DesignDay,07/21,07/21,SummerDesignDay,1,N/A,N/A,N/A,N/A,N/A,N/A,Clark and Allen
Environment:Daylight Saving,No,SizingPeriod:DesignDay
Environment,KODIAK JUNE .4% CONDNS DB=>MCWB,SizingPeriod:DesignDay,06/21,06/21,SummerDesignDay,1,N/A,N/A,N/A,N/A,N/A,N/A,Clark and Allen
Environment:Daylight Saving,No,SizingPeriod:DesignDay
Environment,KODIAK JUNE .4% CONDNS WB=>MCDB,SizingPeriod:DesignDay,06/21,06/21,SummerDesignDay,1,N/A,N/A,N/A,N/A,N/A,N/A,Clark and Allen
Environment:Daylight Saving,No,SizingPeriod:DesignDay
Environment,KODIAK MARCH .4% CONDNS DB=>MCWB,SizingPeriod:DesignDay,03/21,03/21,SummerDesignDay,1,N/A,N/A,N/A,N/A,N/A,N/A,Clark and Allen
Environment:Daylight Saving,No,SizingPeriod:DesignDay
Environment,KODIAK MARCH .4% CONDNS WB=>MCDB,SizingPeriod:DesignDay,03/21,03/21,SummerDesignDay,1,N/A,N/A,N/A,N/A,N/A,N/A,Clark and Allen
Environment:Daylight Saving,No,SizingPeriod:DesignDay
Environment,KODIAK MAY .4% CONDNS DB=>MCWB,SizingPeriod:DesignDay,05/21,05/21,SummerDesignDay,1,N/A,N/A,N/A,N/A,N/A,N/A,Clark and Allen
Environment:Daylight Saving,No,SizingPeriod:DesignDay
Environment,KODIAK MAY .4% CONDNS WB=>MCDB,SizingPeriod:DesignDay,05/21,05/21,SummerDesignDay,1,N/A,N/A,N/A,N/A,N/A,N/A,Clark and Allen
Environment:Daylight Saving,No,SizingPeriod:DesignDay
Environment,KODIAK NOVEMBER .4% CONDNS DB=>MCWB,SizingPeriod:DesignDay,11/21,11/21,SummerDesignDay,1,N/A,N/A,N/A,N/A,N/A,N/A,Clark and Allen
Environment:Daylight Saving,No,SizingPeriod:DesignDay
Environment,KODIAK NOVEMBER .4% CONDNS WB=>MCDB,SizingPeriod:DesignDay,11/21,11/21,SummerDesignDay,1,N/A,N/A,N/A,N/A,N/A,N/A,Clark and Allen
Environment:Daylight Saving,No,SizingPeriod:DesignDay
Environment,KODIAK OCTOBER .4% CONDNS DB=>MCWB,SizingPeriod:DesignDay,10/21,10/21,SummerDesignDay,1,N/A,N/A,N/A,N/A,N/A,N/A,Clark and Allen
Environment:Daylight Saving,No,SizingPeriod:DesignDay
Environment,KODIAK OCTOBER .4% CONDNS WB=>MCDB,SizingPeriod:DesignDay,10/21,10/21,SummerDesignDay,1,N/A,N/A,N/A,N/A,N/A,N/A,Clark and Allen
Environment:Daylight Saving,No,SizingPeriod:DesignDay
Environment,KODIAK SEPTEMBER .4% CONDNS DB=>MCWB,SizingPeriod:DesignDay,09/21,09/21,SummerDesignDay,1,N/A,N/A,N/A,N/A,N/A,N/A,Clark and Allen
Environment:Daylight Saving,No,SizingPeriod:DesignDay
Environment,KODIAK SEPTEMBER .4% CONDNS WB=>MCDB,SizingPeriod:DesignDay,09/21,09/21,SummerDesignDay,1,N/A,N/A,N/A,N/A,N/A,N/A,Clark and Allen
Environment:Daylight Saving,No,SizingPeriod:DesignDay
Environment,KODIAK ANN CLG .4% CONDNS DB=>MWB HVAC Sizing Pass 1,SizingPeriod:DesignDay,08/21,08/21,SummerDesignDay,1,N/A,N/A,N/A,N/A,N/A,N/A,Clark and Allen
Environment:Daylight Saving,No,SizingPeriod:DesignDay
! <Environment:Design Day Data>, Max Dry-Bulb Temp {C}, Temp Range {dC}, Temp Range Ind Type, Hum Ind Type, Hum Ind Value at Max Temp, Hum Ind Units, Pressure {Pa}, Wind Direction {deg CW from N}, Wind Speed {m/s}, Clearness, Rain, Snow
! <Environment:Design Day Misc>,DayOfYear,ASHRAE A Coeff,ASHRAE B Coeff,ASHRAE C Coeff,Solar Constant-Annual Variation,Eq of Time {minutes}, Solar Declination Angle {deg}, Solar Model
Environment:Design Day Data,20.30,6.30,DefaultMultipliers,Wetbulb,14.10,{C},100917,320,5.0,0.00,No,No
Environment:Design Day Misc,233,1106.3,0.2000,0.1216,1.0,-3.33,12.4,ASHRAETau
Environment:WarmupDays,  6
! <Tabular Report>,Style,Unit Conversion
Tabular Report,HTML,None
! <Warmup Convergence Information>,Zone Name,Environment Type/Name,Average Warmup Temperature Difference {deltaC},Std Dev Warmup Temperature Difference {deltaC},Max Temperature Pass/Fail Convergence,Min Temperature Pass/Fail Convergence,Average Warmup Load Difference {W},Std Dev Warmup Load Difference {W},Heating Load Pass/Fail Convergence,Cooling Load Pass/Fail Convergence
 Warmup Convergence Information,ZONE WAREHOUSE BULK  - STORY GROUND,SizingPeriod: KODIAK ANN CLG .4% CONDNS DB=>MWB HVAC Sizing Pass 1,4.8061275767E-002,4.1460031384E-002,Pass,Pass,0.0000000000,0.0000000000,Pass,Pass
 Warmup Convergence Information,ZONE WAREHOUSE FINE  - STORY GROUND,SizingPeriod: KODIAK ANN CLG .4% CONDNS DB=>MWB HVAC Sizing Pass 1,4.5027232521E-002,2.3444417151E-002,Pass,Pass,0.1562671223,0.5003145342,Pass,Pass
 Warmup Convergence Information,ZONE WAREHOUSE OFFICE  - STORY GROUND,SizingPeriod: KODIAK ANN CLG .4% CONDNS DB=>MWB HVAC Sizing Pass 1,3.5769836856E-002,0.1055865702,Pass,Pass,9.5953874342E-002,0.5307362167,Pass,Pass
Environment,KODIAK ANN CLG .4% CONDNS WB=>MDB HVAC Sizing Pass 1,SizingPeriod:DesignDay,08/21,08/21,SummerDesignDay,1,N/A,N/A,N/A,N/A,N/A,N/A,Clark and Allen
Environment:Daylight Saving,No,SizingPeriod:DesignDay
Environment:Design Day Data,18.90,6.30,DefaultMultipliers,Wetbulb,15.00,{C},100917,320,5.0,0.00,No,No
Environment:Design Day Misc,233,1106.3,0.2000,0.1216,1.0,-3.33,12.4,ASHRAETau
Environment:WarmupDays,  6
 Warmup Convergence Information,ZONE WAREHOUSE BULK  - STORY GROUND,SizingPeriod: KODIAK ANN CLG .4% CONDNS WB=>MDB HVAC Sizing Pass 1,4.8433392771E-002,4.1177372122E-002,Pass,Pass,0.0000000000,0.0000000000,Pass,Pass
 Warmup Convergence Information,ZONE WAREHOUSE FINE  - STORY GROUND,SizingPeriod: KODIAK ANN CLG .4% CONDNS WB=>MDB HVAC Sizing Pass 1,4.6303023975E-002,2.4547874548E-002,Pass,Pass,0.5420057992,5.0826755643,Pass,Pass
 Warmup Convergence Information,ZONE WAREHOUSE OFFICE  - STORY GROUND,SizingPeriod: KODIAK ANN CLG .4% CONDNS WB=>MDB HVAC Sizing Pass 1,3.8963640502E-002,8.5911281245E-002,Pass,Pass,6.2617717510E-002,0.2735269639,Pass,Pass
Environment,KODIAK ANN HTG 99.6% CONDNS DB HVAC Sizing Pass 1,SizingPeriod:DesignDay,01/21,01/21,WinterDesignDay,1,N/A,N/A,N/A,N/A,N/A,N/A,Clark and Allen
Environment:Daylight Saving,No,SizingPeriod:DesignDay
Environment:Design Day Data,-12.80,0.00,DefaultMultipliers,Wetbulb,-12.80,{C},100917,290,5.6,0.00,No,No
Environment:Design Day Misc, 21,1229.0,0.1415,5.7310E-002,1.0,-11.15,-20.1,ASHRAEClearSky
Environment:WarmupDays,  6
 Warmup Convergence Information,ZONE WAREHOUSE BULK  - STORY GROUND,SizingPeriod: KODIAK ANN HTG 99.6% CONDNS DB HVAC Sizing Pass 1,6.4146219201E-016,9.5041802992E-016,Pass,Pass,2.6764021584E-003,1.0572413391E-002,Pass,Pass
 Warmup Convergence Information,ZONE WAREHOUSE FINE  - STORY GROUND,SizingPeriod: KODIAK ANN HTG 99.6% CONDNS DB HVAC Sizing Pass 1,1.6776703483E-015,1.5352015152E-015,Pass,Pass,1.3214036621E-003,2.1452693946E-003,Pass,Pass
 Warmup Convergence Information,ZONE WAREHOUSE OFFICE  - STORY GROUND,SizingPeriod: KODIAK ANN HTG 99.6% CONDNS DB HVAC Sizing Pass 1,7.5000000000E-002,0.4623463904,Pass,Pass,4.3101994376E-002,0.3381393983,Pass,Pass
Environment,KODIAK APRIL .4% CONDNS DB=>MCWB HVAC Sizing Pass 1,SizingPeriod:DesignDay,04/21,04/21,SummerDesignDay,1,N/A,N/A,N/A,N/A,N/A,N/A,Clark and Allen
Environment:Daylight Saving,No,SizingPeriod:DesignDay
Environment:Design Day Data,12.90,5.40,DefaultMultipliers,Wetbulb,7.00,{C},100917,320,5.0,0.00,No,No
Environment:Design Day Misc,111,1135.8,0.1796,9.6924E-002,1.0,1.11,11.6,ASHRAETau
Environment:WarmupDays,  7
 Warmup Convergence Information,ZONE WAREHOUSE BULK  - STORY GROUND,SizingPeriod: KODIAK APRIL .4% CONDNS DB=>MCWB HVAC Sizing Pass 1,4.9331628628E-002,4.0037791189E-002,Pass,Pass,0.0000000000,0.0000000000,Pass,Pass
 Warmup Convergence Information,ZONE WAREHOUSE FINE  - STORY GROUND,SizingPeriod: KODIAK APRIL .4% CONDNS DB=>MCWB HVAC Sizing Pass 1,1.3102649801E-002,2.2122838376E-002,Pass,Pass,4.7456768660E-002,7.7853194214E-002,Pass,Pass
 Warmup Convergence Information,ZONE WAREHOUSE OFFICE  - STORY GROUND,SizingPeriod: KODIAK APRIL .4% CONDNS DB=>MCWB HVAC Sizing Pass 1,7.5000041979E-002,0.3032058887,Pass,Pass,8.9636484881E-002,0.5507411968,Pass,Pass
Environment,KODIAK APRIL .4% CONDNS WB=>MCDB HVAC Sizing Pass 1,SizingPeriod:DesignDay,04/21,04/21,SummerDesignDay,1,N/A,N/A,N/A,N/A,N/A,N/A,Clark and Allen
Environment:Daylight Saving,No,SizingPeriod:DesignDay
Environment:Design Day Data,11.40,5.40,DefaultMultipliers,Wetbulb,8.00,{C},100917,320,5.0,0.00,No,No
Environment:Design Day Misc,111,1135.8,0.1796,9.6924E-002,1.0,1.11,11.6,ASHRAETau
Environment:WarmupDays,  7
 Warmup Convergence Information,ZONE WAREHOUSE BULK  - STORY GROUND,SizingPeriod: KODIAK APRIL .4% CONDNS WB=>MCDB HVAC Sizing Pass 1,4.9546276386E-002,4.0344390113E-002,Pass,Pass,0.0000000000,0.0000000000,Pass,Pass
 Warmup Convergence Information,ZONE WAREHOUSE FINE  - STORY GROUND,SizingPeriod: KODIAK APRIL .4% CONDNS WB=>MCDB HVAC Sizing Pass 1,5.7269789747E-003,1.2176094228E-002,Pass,Pass,5.5138521272E-002,8.3989000368E-002,Pass,Pass
 Warmup Convergence Information,ZONE WAREHOUSE OFFICE  - STORY GROUND,SizingPeriod: KODIAK APRIL .4% CONDNS WB=>MCDB HVAC Sizing Pass 1,7.5000016975E-002,0.3159402829,Pass,Pass,0.1060770126,0.7564791917,Pass,Pass
Environment,KODIAK AUGUST .4% CONDNS DB=>MCWB HVAC Sizing Pass 1,SizingPeriod:DesignDay,08/21,08/21,SummerDesignDay,1,N/A,N/A,N/A,N/A,N/A,N/A,Clark and Allen
Environment:Daylight Saving,No,SizingPeriod:DesignDay
Environment:Design Day Data,22.60,6.30,DefaultMultipliers,Wetbulb,16.00,{C},100917,320,5.0,0.00,No,No
Environment:Design Day Misc,233,1106.3,0.2000,0.1216,1.0,-3.33,12.4,ASHRAETau
Environment:WarmupDays,  6
 Warmup Convergence Information,ZONE WAREHOUSE BULK  - STORY GROUND,SizingPeriod: KODIAK AUGUST .4% CONDNS DB=>MCWB HVAC Sizing Pass 1,4.6640007910E-002,4.0135803282E-002,Pass,Pass,0.0000000000,0.0000000000,Pass,Pass
 Warmup Convergence Information,ZONE WAREHOUSE FINE  - STORY GROUND,SizingPeriod: KODIAK AUGUST .4% CONDNS DB=>MCWB HVAC Sizing Pass 1,4.2378824337E-002,2.1634633465E-002,Pass,Pass,0.2283236159,0.7261758027,Pass,Pass
 Warmup Convergence Information,ZONE WAREHOUSE OFFICE  - STORY GROUND,SizingPeriod: KODIAK AUGUST .4% CONDNS DB=>MCWB HVAC Sizing Pass 1,4.9474893864E-002,0.2065401651,Pass,Pass,0.1066992880,0.7726494954,Pass,Pass
Environment,KODIAK AUGUST .4% CONDNS WB=>MCDB HVAC Sizing Pass 1,SizingPeriod:DesignDay,08/21,08/21,SummerDesignDay,1,N/A,N/A,N/A,N/A,N/A,N/A,Clark and Allen
Environment:Daylight Saving,No,SizingPeriod:DesignDay
Environment:Design Day Data,21.40,6.30,DefaultMultipliers,Wetbulb,16.90,{C},100917,320,5.0,0.00,No,No
Environment:Design Day Misc,233,1106.3,0.2000,0.1216,1.0,-3.33,12.4,ASHRAETau
Environment:WarmupDays,  6
 Warmup Convergence Information,ZONE WAREHOUSE BULK  - STORY GROUND,SizingPeriod: KODIAK AUGUST .4% CONDNS WB=>MCDB HVAC Sizing Pass 1,4.7383932402E-002,4.0496040686E-002,Pass,Pass,0.0000000000,0.0000000000,Pass,Pass
 Warmup Convergence Information,ZONE WAREHOUSE FINE  - STORY GROUND,SizingPeriod: KODIAK AUGUST .4% CONDNS WB=>MCDB HVAC Sizing Pass 1,4.3699665150E-002,2.2403745745E-002,Pass,Pass,0.3201194782,1.7171659284,Pass,Pass
 Warmup Convergence Information,ZONE WAREHOUSE OFFICE  - STORY GROUND,SizingPeriod: KODIAK AUGUST .4% CONDNS WB=>MCDB HVAC Sizing Pass 1,4.2329992131E-002,0.1600479447,Pass,Pass,9.3427068007E-002,0.5854731675,Pass,Pass
Environment,KODIAK DECEMBER .4% CONDNS DB=>MCWB HVAC Sizing Pass 1,SizingPeriod:DesignDay,12/21,12/21,SummerDesignDay,1,N/A,N/A,N/A,N/A,N/A,N/A,Clark and Allen
Environment:Daylight Saving,No,SizingPeriod:DesignDay
Environment:Design Day Data,6.90,5.10,DefaultMultipliers,Wetbulb,5.60,{C},100917,320,5.0,0.00,No,No
Environment:Design Day Misc,355,1232.8,0.1424,5.7719E-002,1.0,2.45,-23.5,ASHRAETau
Environment:WarmupDays,  8
 Warmup Convergence Information,ZONE WAREHOUSE BULK  - STORY GROUND,SizingPeriod: KODIAK DECEMBER .4% CONDNS DB=>MCWB HVAC Sizing Pass 1,3.3142595202E-002,3.1329682170E-002,Pass,Pass,0.0000000000,0.0000000000,Pass,Pass
 Warmup Convergence Information,ZONE WAREHOUSE FINE  - STORY GROUND,SizingPeriod: KODIAK DECEMBER .4% CONDNS DB=>MCWB HVAC Sizing Pass 1,1.4247500710E-010,1.1931971493E-009,Pass,Pass,1.4477748614E-002,1.0077333283E-002,Pass,Pass
 Warmup Convergence Information,ZONE WAREHOUSE OFFICE  - STORY GROUND,SizingPeriod: KODIAK DECEMBER .4% CONDNS DB=>MCWB HVAC Sizing Pass 1,7.5000000000E-002,0.3719786187,Pass,Pass,0.1590866814,1.5025781180,Pass,Pass
Environment,KODIAK DECEMBER .4% CONDNS WB=>MCDB HVAC Sizing Pass 1,SizingPeriod:DesignDay,12/21,12/21,SummerDesignDay,1,N/A,N/A,N/A,N/A,N/A,N/A,Clark and Allen
Environment:Daylight Saving,No,SizingPeriod:DesignDay
Environment:Design Day Data,6.50,5.10,DefaultMultipliers,Wetbulb,6.20,{C},100917,320,5.0,0.00,No,No
Environment:Design Day Misc,355,1232.8,0.1424,5.7719E-002,1.0,2.45,-23.5,ASHRAETau
Environment:WarmupDays,  8
 Warmup Convergence Information,ZONE WAREHOUSE BULK  - STORY GROUND,SizingPeriod: KODIAK DECEMBER .4% CONDNS WB=>MCDB HVAC Sizing Pass 1,3.1688238170E-002,3.2308593781E-002,Pass,Pass,3.8558028774E-002,0.2100943258,Pass,Pass
 Warmup Convergence Information,ZONE WAREHOUSE FINE  - STORY GROUND,SizingPeriod: KODIAK DECEMBER .4% CONDNS WB=>MCDB HVAC Sizing Pass 1,1.1907167251E-007,9.9725960750E-007,Pass,Pass,1.3714361226E-002,9.5545236355E-003,Pass,Pass
 Warmup Convergence Information,ZONE WAREHOUSE OFFICE  - STORY GROUND,SizingPeriod: KODIAK DECEMBER .4% CONDNS WB=>MCDB HVAC Sizing Pass 1,7.5000000000E-002,0.3752605540,Pass,Pass,0.1691943069,1.6278704393,Pass,Pass
Environment,KODIAK FEBRUARY .4% CONDNS DB=>MCWB HVAC Sizing Pass 1,SizingPeriod:DesignDay,02/21,02/21,SummerDesignDay,1,N/A,N/A,N/A,N/A,N/A,N/A,Clark and Allen
Environment:Daylight Saving,No,SizingPeriod:DesignDay
Environment:Design Day Data,6.90,4.90,DefaultMultipliers,Wetbulb,4.60,{C},100917,320,5.0,0.00,No,No
Environment:Design Day Misc, 52,1214.6,0.1445,6.0579E-002,1.0,-13.80,-10.8,ASHRAETau
Environment:WarmupDays,  8
 Warmup Convergence Information,ZONE WAREHOUSE BULK  - STORY GROUND,SizingPeriod: KODIAK FEBRUARY .4% CONDNS DB=>MCWB HVAC Sizing Pass 1,1.5662701713E-002,3.2218305203E-002,Pass,Pass,6.1862323159E-002,0.2757593990,Pass,Pass
 Warmup Convergence Information,ZONE WAREHOUSE FINE  - STORY GROUND,SizingPeriod: KODIAK FEBRUARY .4% CONDNS DB=>MCWB HVAC Sizing Pass 1,2.1340953696E-015,1.7711665025E-015,Pass,Pass,1.2018615090E-002,8.8268852130E-003,Pass,Pass
 Warmup Convergence Information,ZONE WAREHOUSE OFFICE  - STORY GROUND,SizingPeriod: KODIAK FEBRUARY .4% CONDNS DB=>MCWB HVAC Sizing Pass 1,7.5000000000E-002,0.3907582154,Pass,Pass,0.1690623917,1.6129020760,Pass,Pass
Environment,KODIAK FEBRUARY .4% CONDNS WB=>MCDB HVAC Sizing Pass 1,SizingPeriod:DesignDay,02/21,02/21,SummerDesignDay,1,N/A,N/A,N/A,N/A,N/A,N/A,Clark and Allen
Environment:Daylight Saving,No,SizingPeriod:DesignDay
Environment:Design Day Data,6.10,4.90,DefaultMultipliers,Wetbulb,5.50,{C},100917,320,5.0,0.00,No,No
Environment:Design Day Misc, 52,1214.6,0.1445,6.0579E-002,1.0,-13.80,-10.8,ASHRAETau
Environment:WarmupDays,  8
 Warmup Convergence Information,ZONE WAREHOUSE BULK  - STORY GROUND,SizingPeriod: KODIAK FEBRUARY .4% CONDNS WB=>MCDB HVAC Sizing Pass 1,1.2714335783E-002,3.0382210707E-002,Pass,Pass,6.7227003373E-002,0.3093754870,Pass,Pass
 Warmup Convergence Information,ZONE WAREHOUSE FINE  - STORY GROUND,SizingPeriod: KODIAK FEBRUARY .4% CONDNS WB=>MCDB HVAC Sizing Pass 1,1.7640210280E-015,1.3806743577E-015,Pass,Pass,1.1329997013E-002,8.3424311051E-003,Pass,Pass
 Warmup Convergence Information,ZONE WAREHOUSE OFFICE  - STORY GROUND,SizingPeriod: KODIAK FEBRUARY .4% CONDNS WB=>MCDB HVAC Sizing Pass 1,7.5000000000E-002,0.3951044979,Pass,Pass,0.1775897499,1.7172267138,Pass,Pass
Environment,KODIAK JANUARY .4% CONDNS DB=>MCWB HVAC Sizing Pass 1,SizingPeriod:DesignDay,01/21,01/21,SummerDesignDay,1,N/A,N/A,N/A,N/A,N/A,N/A,Clark and Allen
Environment:Daylight Saving,No,SizingPeriod:DesignDay
Environment:Design Day Data,6.80,4.70,DefaultMultipliers,Wetbulb,4.00,{C},100917,320,5.0,0.00,No,No
Environment:Design Day Misc, 21,1229.0,0.1415,5.7310E-002,1.0,-11.15,-20.1,ASHRAETau
Environment:WarmupDays, 10
 Warmup Convergence Information,ZONE WAREHOUSE BULK  - STORY GROUND,SizingPeriod: KODIAK JANUARY .4% CONDNS DB=>MCWB HVAC Sizing Pass 1,2.2769541377E-002,3.1199155092E-002,Pass,Pass,2.2403858089E-002,6.3240108375E-002,Pass,Pass
 Warmup Convergence Information,ZONE WAREHOUSE FINE  - STORY GROUND,SizingPeriod: KODIAK JANUARY .4% CONDNS DB=>MCWB HVAC Sizing Pass 1,1.8873791419E-015,1.4686870115E-015,Pass,Pass,1.2280147418E-002,8.6789189526E-003,Pass,Pass
 Warmup Convergence Information,ZONE WAREHOUSE OFFICE  - STORY GROUND,SizingPeriod: KODIAK JANUARY .4% CONDNS DB=>MCWB HVAC Sizing Pass 1,7.5000000000E-002,0.3869978477,Pass,Pass,0.1694240163,1.6504742807,Pass,Pass
Environment,KODIAK JANUARY .4% CONDNS WB=>MCDB HVAC Sizing Pass 1,SizingPeriod:DesignDay,01/21,01/21,SummerDesignDay,1,N/A,N/A,N/A,N/A,N/A,N/A,Clark and Allen
Environment:Daylight Saving,No,SizingPeriod:DesignDay
Environment:Design Day Data,5.70,4.70,DefaultMultipliers,Wetbulb,5.50,{C},100917,320,5.0,0.00,No,No
Environment:Design Day Misc, 21,1229.0,0.1415,5.7310E-002,1.0,-11.15,-20.1,ASHRAETau
Environment:WarmupDays,  9
 Warmup Convergence Information,ZONE WAREHOUSE BULK  - STORY GROUND,SizingPeriod: KODIAK JANUARY .4% CONDNS WB=>MCDB HVAC Sizing Pass 1,1.8028290493E-002,3.1302986507E-002,Pass,Pass,6.4768246592E-002,0.2614795289,Pass,Pass
 Warmup Convergence Information,ZONE WAREHOUSE FINE  - STORY GROUND,SizingPeriod: KODIAK JANUARY .4% CONDNS WB=>MCDB HVAC Sizing Pass 1,1.6529987256E-015,1.4899290835E-015,Pass,Pass,1.1086314093E-002,7.8511271977E-003,Pass,Pass
 Warmup Convergence Information,ZONE WAREHOUSE OFFICE  - STORY GROUND,SizingPeriod: KODIAK JANUARY .4% CONDNS WB=>MCDB HVAC Sizing Pass 1,7.5000000000E-002,0.3935033655,Pass,Pass,0.1817739220,1.8019654248,Pass,Pass
Environment,KODIAK JULY .4% CONDNS DB=>MCWB HVAC Sizing Pass 1,SizingPeriod:DesignDay,07/21,07/21,SummerDesignDay,1,N/A,N/A,N/A,N/A,N/A,N/A,Clark and Allen
Environment:Daylight Saving,No,SizingPeriod:DesignDay
Environment:Design Day Data,24.20,5.50,DefaultMultipliers,Wetbulb,16.20,{C},100917,320,5.0,0.00,No,No
Environment:Design Day Misc,202,1084.4,0.2082,0.1365,1.0,-6.23,20.6,ASHRAETau
Environment:WarmupDays,  6
 Warmup Convergence Information,ZONE WAREHOUSE BULK  - STORY GROUND,SizingPeriod: KODIAK JULY .4% CONDNS DB=>MCWB HVAC Sizing Pass 1,4.4250936632E-002,3.6255834901E-002,Pass,Pass,0.0000000000,0.0000000000,Pass,Pass
 Warmup Convergence Information,ZONE WAREHOUSE FINE  - STORY GROUND,SizingPeriod: KODIAK JULY .4% CONDNS DB=>MCWB HVAC Sizing Pass 1,3.6942571691E-002,2.0952206924E-002,Pass,Pass,0.1190935455,0.3597256799,Pass,Pass
 Warmup Convergence Information,ZONE WAREHOUSE OFFICE  - STORY GROUND,SizingPeriod: KODIAK JULY .4% CONDNS DB=>MCWB HVAC Sizing Pass 1,6.0129382782E-002,0.2224010905,Pass,Pass,0.1181422809,0.6126453319,Pass,Pass
Environment,KODIAK JULY .4% CONDNS WB=>MCDB HVAC Sizing Pass 1,SizingPeriod:DesignDay,07/21,07/21,SummerDesignDay,1,N/A,N/A,N/A,N/A,N/A,N/A,Clark and Allen
Environment:Daylight Saving,No,SizingPeriod:DesignDay
Environment:Design Day Data,22.80,5.50,DefaultMultipliers,Wetbulb,16.60,{C},100917,320,5.0,0.00,No,No
Environment:Design Day Misc,202,1084.4,0.2082,0.1365,1.0,-6.23,20.6,ASHRAETau
Environment:WarmupDays,  6
 Warmup Convergence Information,ZONE WAREHOUSE BULK  - STORY GROUND,SizingPeriod: KODIAK JULY .4% CONDNS WB=>MCDB HVAC Sizing Pass 1,4.5414983613E-002,3.6925088949E-002,Pass,Pass,0.0000000000,0.0000000000,Pass,Pass
 Warmup Convergence Information,ZONE WAREHOUSE FINE  - STORY GROUND,SizingPeriod: KODIAK JULY .4% CONDNS WB=>MCDB HVAC Sizing Pass 1,4.0602648798E-002,1.8958301775E-002,Pass,Pass,0.2162466546,0.8564413086,Pass,Pass
 Warmup Convergence Information,ZONE WAREHOUSE OFFICE  - STORY GROUND,SizingPeriod: KODIAK JULY .4% CONDNS WB=>MCDB HVAC Sizing Pass 1,4.8281918798E-002,0.1801987610,Pass,Pass,9.3696799162E-002,0.5261526785,Pass,Pass
Environment,KODIAK JUNE .4% CONDNS DB=>MCWB HVAC Sizing Pass 1,SizingPeriod:DesignDay,06/21,06/21,SummerDesignDay,1,N/A,N/A,N/A,N/A,N/A,N/A,Clark and Allen
Environment:Daylight Saving,No,SizingPeriod:DesignDay
Environment:Design Day Data,22.30,5.40,DefaultMultipliers,Wetbulb,13.80,{C},100917,320,5.0,0.00,No,No
Environment:Design Day Misc,172,1088.0,0.2039,0.1335,1.0,-1.34,23.4,ASHRAETau
Environment:WarmupDays,  6
 Warmup Convergence Information,ZONE WAREHOUSE BULK  - STORY GROUND,SizingPeriod: KODIAK JUNE .4% CONDNS DB=>MCWB HVAC Sizing Pass 1,4.6223921313E-002,3.6347189556E-002,Pass,Pass,0.0000000000,0.0000000000,Pass,Pass
 Warmup Convergence Information,ZONE WAREHOUSE FINE  - STORY GROUND,SizingPeriod: KODIAK JUNE .4% CONDNS DB=>MCWB HVAC Sizing Pass 1,4.2462736081E-002,1.9297167168E-002,Pass,Pass,1.3642833681E-002,1.1278083343E-002,Pass,Pass
 Warmup Convergence Information,ZONE WAREHOUSE OFFICE  - STORY GROUND,SizingPeriod: KODIAK JUNE .4% CONDNS DB=>MCWB HVAC Sizing Pass 1,3.8048760620E-002,6.9972486680E-002,Pass,Pass,5.8811584851E-002,0.1720428796,Pass,Pass
Environment,KODIAK JUNE .4% CONDNS WB=>MCDB HVAC Sizing Pass 1,SizingPeriod:DesignDay,06/21,06/21,SummerDesignDay,1,N/A,N/A,N/A,N/A,N/A,N/A,Clark and Allen
Environment:Daylight Saving,No,SizingPeriod:DesignDay
Environment:Design Day Data,20.30,5.40,DefaultMultipliers,Wetbulb,14.70,{C},100917,320,5.0,0.00,No,No
Environment:Design Day Misc,172,1088.0,0.2039,0.1335,1.0,-1.34,23.4,ASHRAETau
Environment:WarmupDays,  6
 Warmup Convergence Information,ZONE WAREHOUSE BULK  - STORY GROUND,SizingPeriod: KODIAK JUNE .4% CONDNS WB=>MCDB HVAC Sizing Pass 1,4.6884049139E-002,3.6227553922E-002,Pass,Pass,0.0000000000,0.0000000000,Pass,Pass
 Warmup Convergence Information,ZONE WAREHOUSE FINE  - STORY GROUND,SizingPeriod: KODIAK JUNE .4% CONDNS WB=>MCDB HVAC Sizing Pass 1,4.3951103419E-002,1.9880684789E-002,Pass,Pass,1.8024692528E-002,1.4498903668E-002,Pass,Pass
 Warmup Convergence Information,ZONE WAREHOUSE OFFICE  - STORY GROUND,SizingPeriod: KODIAK JUNE .4% CONDNS WB=>MCDB HVAC Sizing Pass 1,4.0607561257E-002,3.9216037412E-002,Pass,Pass,7.6085413493E-002,0.2621494572,Pass,Pass
Environment,KODIAK MARCH .4% CONDNS DB=>MCWB HVAC Sizing Pass 1,SizingPeriod:DesignDay,03/21,03/21,SummerDesignDay,1,N/A,N/A,N/A,N/A,N/A,N/A,Clark and Allen
Environment:Daylight Saving,No,SizingPeriod:DesignDay
Environment:Design Day Data,8.30,5.50,DefaultMultipliers,Wetbulb,3.90,{C},100917,320,5.0,0.00,No,No
Environment:Design Day Misc, 80,1184.3,0.1559,7.0716E-002,1.0,-7.51,-4.2E-002,ASHRAETau
Environment:WarmupDays,  9
 Warmup Convergence Information,ZONE WAREHOUSE BULK  - STORY GROUND,SizingPeriod: KODIAK MARCH .4% CONDNS DB=>MCWB HVAC Sizing Pass 1,2.9602542157E-002,4.0043873072E-002,Pass,Pass,0.1474732302,1.3796985451,Pass,Pass
 Warmup Convergence Information,ZONE WAREHOUSE FINE  - STORY GROUND,SizingPeriod: KODIAK MARCH .4% CONDNS DB=>MCWB HVAC Sizing Pass 1,4.9749270136E-010,4.1674851672E-009,Pass,Pass,1.8440752941E-002,1.3840525247E-002,Pass,Pass
 Warmup Convergence Information,ZONE WAREHOUSE OFFICE  - STORY GROUND,SizingPeriod: KODIAK MARCH .4% CONDNS DB=>MCWB HVAC Sizing Pass 1,7.5000000000E-002,0.3628868453,Pass,Pass,0.1451328906,1.2831646649,Pass,Pass
Environment,KODIAK MARCH .4% CONDNS WB=>MCDB HVAC Sizing Pass 1,SizingPeriod:DesignDay,03/21,03/21,SummerDesignDay,1,N/A,N/A,N/A,N/A,N/A,N/A,Clark and Allen
Environment:Daylight Saving,No,SizingPeriod:DesignDay
Environment:Design Day Data,6.30,5.50,DefaultMultipliers,Wetbulb,5.20,{C},100917,320,5.0,0.00,No,No
Environment:Design Day Misc, 80,1184.3,0.1559,7.0716E-002,1.0,-7.51,-4.2E-002,ASHRAETau
Environment:WarmupDays,  8
 Warmup Convergence Information,ZONE WAREHOUSE BULK  - STORY GROUND,SizingPeriod: KODIAK MARCH .4% CONDNS WB=>MCDB HVAC Sizing Pass 1,2.1031175292E-002,3.6327812967E-002,Pass,Pass,6.5336255877E-002,0.3086457504,Pass,Pass
 Warmup Convergence Information,ZONE WAREHOUSE FINE  - STORY GROUND,SizingPeriod: KODIAK MARCH .4% CONDNS WB=>MCDB HVAC Sizing Pass 1,4.4776219769E-011,3.7716605756E-010,Pass,Pass,1.5242178476E-002,1.1595062863E-002,Pass,Pass
 Warmup Convergence Information,ZONE WAREHOUSE OFFICE  - STORY GROUND,SizingPeriod: KODIAK MARCH .4% CONDNS WB=>MCDB HVAC Sizing Pass 1,7.5000000000E-002,0.3755088409,Pass,Pass,0.1699700467,1.5870648738,Pass,Pass
Environment,KODIAK MAY .4% CONDNS DB=>MCWB HVAC Sizing Pass 1,SizingPeriod:DesignDay,05/21,05/21,SummerDesignDay,1,N/A,N/A,N/A,N/A,N/A,N/A,Clark and Allen
Environment:Daylight Saving,No,SizingPeriod:DesignDay
Environment:Design Day Data,18.80,5.90,DefaultMultipliers,Wetbulb,10.50,{C},100917,320,5.0,0.00,No,No
Environment:Design Day Misc,141,1102.7,0.1968,0.1213,1.0,3.61,20.0,ASHRAETau
Environment:WarmupDays,  8
 Warmup Convergence Information,ZONE WAREHOUSE BULK  - STORY GROUND,SizingPeriod: KODIAK MAY .4% CONDNS DB=>MCWB HVAC Sizing Pass 1,4.8935966188E-002,3.7139274001E-002,Pass,Pass,0.0000000000,0.0000000000,Pass,Pass
 Warmup Convergence Information,ZONE WAREHOUSE FINE  - STORY GROUND,SizingPeriod: KODIAK MAY .4% CONDNS DB=>MCWB HVAC Sizing Pass 1,4.7732355720E-002,2.2756792190E-002,Pass,Pass,1.3497544810E-002,1.4655716200E-002,Pass,Pass
 Warmup Convergence Information,ZONE WAREHOUSE OFFICE  - STORY GROUND,SizingPeriod: KODIAK MAY .4% CONDNS DB=>MCWB HVAC Sizing Pass 1,6.4845726556E-002,0.1164690745,Pass,Pass,3.7864189762E-002,0.1034696151,Pass,Pass
Environment,KODIAK MAY .4% CONDNS WB=>MCDB HVAC Sizing Pass 1,SizingPeriod:DesignDay,05/21,05/21,SummerDesignDay,1,N/A,N/A,N/A,N/A,N/A,N/A,Clark and Allen
Environment:Daylight Saving,No,SizingPeriod:DesignDay
Environment:Design Day Data,17.00,5.90,DefaultMultipliers,Wetbulb,11.20,{C},100917,320,5.0,0.00,No,No
Environment:Design Day Misc,141,1102.7,0.1968,0.1213,1.0,3.61,20.0,ASHRAETau
Environment:WarmupDays,  7
 Warmup Convergence Information,ZONE WAREHOUSE BULK  - STORY GROUND,SizingPeriod: KODIAK MAY .4% CONDNS WB=>MCDB HVAC Sizing Pass 1,4.9693597114E-002,3.7553659391E-002,Pass,Pass,0.0000000000,0.0000000000,Pass,Pass
 Warmup Convergence Information,ZONE WAREHOUSE FINE  - STORY GROUND,SizingPeriod: KODIAK MAY .4% CONDNS WB=>MCDB HVAC Sizing Pass 1,4.8615078418E-002,2.3866606268E-002,Pass,Pass,1.7614423738E-002,2.0531777000E-002,Pass,Pass
 Warmup Convergence Information,ZONE WAREHOUSE OFFICE  - STORY GROUND,SizingPeriod: KODIAK MAY .4% CONDNS WB=>MCDB HVAC Sizing Pass 1,6.6585023294E-002,0.1989165763,Pass,Pass,4.7893460377E-002,0.1036396270,Pass,Pass
Environment,KODIAK NOVEMBER .4% CONDNS DB=>MCWB HVAC Sizing Pass 1,SizingPeriod:DesignDay,11/21,11/21,SummerDesignDay,1,N/A,N/A,N/A,N/A,N/A,N/A,Clark and Allen
Environment:Daylight Saving,No,SizingPeriod:DesignDay
Environment:Design Day Data,9.40,5.30,DefaultMultipliers,Wetbulb,7.30,{C},100917,320,5.0,0.00,No,No
Environment:Design Day Misc,325,1220.2,0.1488,6.4032E-002,1.0,14.25,-19.7,ASHRAETau
Environment:WarmupDays,  7
 Warmup Convergence Information,ZONE WAREHOUSE BULK  - STORY GROUND,SizingPeriod: KODIAK NOVEMBER .4% CONDNS DB=>MCWB HVAC Sizing Pass 1,3.5067722142E-002,3.1989063422E-002,Pass,Pass,0.0000000000,0.0000000000,Pass,Pass
 Warmup Convergence Information,ZONE WAREHOUSE FINE  - STORY GROUND,SizingPeriod: KODIAK NOVEMBER .4% CONDNS DB=>MCWB HVAC Sizing Pass 1,8.4459138544E-003,1.4665067478E-002,Pass,Pass,9.6899902360E-002,0.2583184909,Pass,Pass
 Warmup Convergence Information,ZONE WAREHOUSE OFFICE  - STORY GROUND,SizingPeriod: KODIAK NOVEMBER .4% CONDNS DB=>MCWB HVAC Sizing Pass 1,7.5545617083E-002,0.3211928251,Pass,Pass,0.1167078995,0.9123250632,Pass,Pass
Environment,KODIAK NOVEMBER .4% CONDNS WB=>MCDB HVAC Sizing Pass 1,SizingPeriod:DesignDay,11/21,11/21,SummerDesignDay,1,N/A,N/A,N/A,N/A,N/A,N/A,Clark and Allen
Environment:Daylight Saving,No,SizingPeriod:DesignDay
Environment:Design Day Data,8.70,5.30,DefaultMultipliers,Wetbulb,8.20,{C},100917,320,5.0,0.00,No,No
Environment:Design Day Misc,325,1220.2,0.1488,6.4032E-002,1.0,14.25,-19.7,ASHRAETau
Environment:WarmupDays,  7
 Warmup Convergence Information,ZONE WAREHOUSE BULK  - STORY GROUND,SizingPeriod: KODIAK NOVEMBER .4% CONDNS WB=>MCDB HVAC Sizing Pass 1,3.5237740204E-002,3.2135506883E-002,Pass,Pass,0.0000000000,0.0000000000,Pass,Pass
 Warmup Convergence Information,ZONE WAREHOUSE FINE  - STORY GROUND,SizingPeriod: KODIAK NOVEMBER .4% CONDNS WB=>MCDB HVAC Sizing Pass 1,4.2066131186E-003,1.0209314323E-002,Pass,Pass,7.2817728067E-002,0.1401774050,Pass,Pass
 Warmup Convergence Information,ZONE WAREHOUSE OFFICE  - STORY GROUND,SizingPeriod: KODIAK NOVEMBER .4% CONDNS WB=>MCDB HVAC Sizing Pass 1,7.5170385868E-002,0.3274339557,Pass,Pass,0.1243099629,0.9953187051,Pass,Pass
Environment,KODIAK OCTOBER .4% CONDNS DB=>MCWB HVAC Sizing Pass 1,SizingPeriod:DesignDay,10/21,10/21,SummerDesignDay,1,N/A,N/A,N/A,N/A,N/A,N/A,Clark and Allen
Environment:Daylight Saving,No,SizingPeriod:DesignDay
Environment:Design Day Data,12.60,6.20,DefaultMultipliers,Wetbulb,9.40,{C},100917,320,5.0,0.00,No,No
Environment:Design Day Misc,294,1191.2,0.1597,7.3069E-002,1.0,15.18,-10.4,ASHRAETau
Environment:WarmupDays,  7
 Warmup Convergence Information,ZONE WAREHOUSE BULK  - STORY GROUND,SizingPeriod: KODIAK OCTOBER .4% CONDNS DB=>MCWB HVAC Sizing Pass 1,4.1366672655E-002,3.8360723899E-002,Pass,Pass,0.0000000000,0.0000000000,Pass,Pass
 Warmup Convergence Information,ZONE WAREHOUSE FINE  - STORY GROUND,SizingPeriod: KODIAK OCTOBER .4% CONDNS DB=>MCWB HVAC Sizing Pass 1,4.0533216676E-002,2.4190085653E-002,Pass,Pass,2.6215337640E-002,2.2720886315E-002,Pass,Pass
 Warmup Convergence Information,ZONE WAREHOUSE OFFICE  - STORY GROUND,SizingPeriod: KODIAK OCTOBER .4% CONDNS DB=>MCWB HVAC Sizing Pass 1,6.0969726093E-002,0.2035977570,Pass,Pass,6.7966744101E-002,0.1815470650,Pass,Pass
Environment,KODIAK OCTOBER .4% CONDNS WB=>MCDB HVAC Sizing Pass 1,SizingPeriod:DesignDay,10/21,10/21,SummerDesignDay,1,N/A,N/A,N/A,N/A,N/A,N/A,Clark and Allen
Environment:Daylight Saving,No,SizingPeriod:DesignDay
Environment:Design Day Data,11.30,6.20,DefaultMultipliers,Wetbulb,10.70,{C},100917,320,5.0,0.00,No,No
Environment:Design Day Misc,294,1191.2,0.1597,7.3069E-002,1.0,15.18,-10.4,ASHRAETau
Environment:WarmupDays,  6
 Warmup Convergence Information,ZONE WAREHOUSE BULK  - STORY GROUND,SizingPeriod: KODIAK OCTOBER .4% CONDNS WB=>MCDB HVAC Sizing Pass 1,4.1630104071E-002,3.7908204577E-002,Pass,Pass,0.0000000000,0.0000000000,Pass,Pass
 Warmup Convergence Information,ZONE WAREHOUSE FINE  - STORY GROUND,SizingPeriod: KODIAK OCTOBER .4% CONDNS WB=>MCDB HVAC Sizing Pass 1,3.9789914524E-002,2.5784071553E-002,Pass,Pass,0.1295267772,0.4140836638,Pass,Pass
 Warmup Convergence Information,ZONE WAREHOUSE OFFICE  - STORY GROUND,SizingPeriod: KODIAK OCTOBER .4% CONDNS WB=>MCDB HVAC Sizing Pass 1,6.1669758686E-002,0.2198636766,Pass,Pass,8.5763170842E-002,0.2769935394,Pass,Pass
Environment,KODIAK SEPTEMBER .4% CONDNS DB=>MCWB HVAC Sizing Pass 1,SizingPeriod:DesignDay,09/21,09/21,SummerDesignDay,1,N/A,N/A,N/A,N/A,N/A,N/A,Clark and Allen
Environment:Daylight Saving,No,SizingPeriod:DesignDay
Environment:Design Day Data,18.00,6.40,DefaultMultipliers,Wetbulb,12.50,{C},100917,320,5.0,0.00,No,No
Environment:Design Day Misc,264,1151.1,0.1777,9.2179E-002,1.0,6.63,1.0,ASHRAETau
Environment:WarmupDays,  6
 Warmup Convergence Information,ZONE WAREHOUSE BULK  - STORY GROUND,SizingPeriod: KODIAK SEPTEMBER .4% CONDNS DB=>MCWB HVAC Sizing Pass 1,4.5185039522E-002,4.1093986264E-002,Pass,Pass,0.0000000000,0.0000000000,Pass,Pass
 Warmup Convergence Information,ZONE WAREHOUSE FINE  - STORY GROUND,SizingPeriod: KODIAK SEPTEMBER .4% CONDNS DB=>MCWB HVAC Sizing Pass 1,4.3533437786E-002,2.6242206806E-002,Pass,Pass,6.2703040605E-002,7.9896461032E-002,Pass,Pass
 Warmup Convergence Information,ZONE WAREHOUSE OFFICE  - STORY GROUND,SizingPeriod: KODIAK SEPTEMBER .4% CONDNS DB=>MCWB HVAC Sizing Pass 1,3.7016067151E-002,6.0189264895E-002,Pass,Pass,5.0433998892E-002,0.1411124714,Pass,Pass
Environment,KODIAK SEPTEMBER .4% CONDNS WB=>MCDB HVAC Sizing Pass 1,SizingPeriod:DesignDay,09/21,09/21,SummerDesignDay,1,N/A,N/A,N/A,N/A,N/A,N/A,Clark and Allen
Environment:Daylight Saving,No,SizingPeriod:DesignDay
Environment:Design Day Data,16.20,6.40,DefaultMultipliers,Wetbulb,13.80,{C},100917,320,5.0,0.00,No,No
Environment:Design Day Misc,264,1151.1,0.1777,9.2179E-002,1.0,6.63,1.0,ASHRAETau
Environment:WarmupDays,  6
 Warmup Convergence Information,ZONE WAREHOUSE BULK  - STORY GROUND,SizingPeriod: KODIAK SEPTEMBER .4% CONDNS WB=>MCDB HVAC Sizing Pass 1,4.5572871313E-002,4.0522770362E-002,Pass,Pass,0.0000000000,0.0000000000,Pass,Pass
 Warmup Convergence Information,ZONE WAREHOUSE FINE  - STORY GROUND,SizingPeriod: KODIAK SEPTEMBER .4% CONDNS WB=>MCDB HVAC Sizing Pass 1,4.4737341822E-002,2.6758478304E-002,Pass,Pass,2.4130713719E-002,1.6467147059E-002,Pass,Pass
 Warmup Convergence Information,ZONE WAREHOUSE OFFICE  - STORY GROUND,SizingPeriod: KODIAK SEPTEMBER .4% CONDNS WB=>MCDB HVAC Sizing Pass 1,4.3817937587E-002,4.9380650137E-002,Pass,Pass,7.9146057314E-002,0.3752342597,Pass,Pass
Environment,KODIAK ANN CLG .4% CONDNS DB=>MWB,SizingPeriod:DesignDay,08/21,08/21,SummerDesignDay,1,N/A,N/A,N/A,N/A,N/A,N/A,Clark and Allen
Environment:Daylight Saving,No,SizingPeriod:DesignDay
Environment:Design Day Data,20.30,6.30,DefaultMultipliers,Wetbulb,14.10,{C},100917,320,5.0,0.00,No,No
Environment:Design Day Misc,233,1106.3,0.2000,0.1216,1.0,-3.33,12.4,ASHRAETau
 Component Sizing Information, PlantLoop, MAIN SERVICE WATER LOOP, Maximum Loop Flow Rate [m3/s], 0.00000
 Component Sizing Information, PlantLoop, MAIN SERVICE WATER LOOP, Plant Loop Volume [m3], 0.00000
 Component Sizing Information, WaterHeater:Mixed, 40GAL ELECTRICITY WATER HEATER - 40KBTU/HR 1.0 THERM EFF, Use Side Design Flow Rate [m3/s], 0.00000
 Component Sizing Information, Pump:VariableSpeed, MAIN SERVICE WATER LOOP WATER MAINS PRESSURE DRIVEN, Design Flow Rate [m3/s], 0.00000
 Component Sizing Information, Pump:VariableSpeed, MAIN SERVICE WATER LOOP WATER MAINS PRESSURE DRIVEN, Design Power Consumption [W], 0.00000
Environment,KODIAK ANN CLG .4% CONDNS WB=>MDB,SizingPeriod:DesignDay,08/21,08/21,SummerDesignDay,1,N/A,N/A,N/A,N/A,N/A,N/A,Clark and Allen
Environment:Daylight Saving,No,SizingPeriod:DesignDay
Environment:Design Day Data,18.90,6.30,DefaultMultipliers,Wetbulb,15.00,{C},100917,320,5.0,0.00,No,No
Environment:Design Day Misc,233,1106.3,0.2000,0.1216,1.0,-3.33,12.4,ASHRAETau
Environment,KODIAK ANN HTG 99.6% CONDNS DB,SizingPeriod:DesignDay,01/21,01/21,WinterDesignDay,1,N/A,N/A,N/A,N/A,N/A,N/A,Clark and Allen
Environment:Daylight Saving,No,SizingPeriod:DesignDay
Environment:Design Day Data,-12.80,0.00,DefaultMultipliers,Wetbulb,-12.80,{C},100917,290,5.6,0.00,No,No
Environment:Design Day Misc, 21,1229.0,0.1415,5.7310E-002,1.0,-11.15,-20.1,ASHRAEClearSky
Environment,KODIAK APRIL .4% CONDNS DB=>MCWB,SizingPeriod:DesignDay,04/21,04/21,SummerDesignDay,1,N/A,N/A,N/A,N/A,N/A,N/A,Clark and Allen
Environment:Daylight Saving,No,SizingPeriod:DesignDay
Environment:Design Day Data,12.90,5.40,DefaultMultipliers,Wetbulb,7.00,{C},100917,320,5.0,0.00,No,No
Environment:Design Day Misc,111,1135.8,0.1796,9.6924E-002,1.0,1.11,11.6,ASHRAETau
Environment,KODIAK APRIL .4% CONDNS WB=>MCDB,SizingPeriod:DesignDay,04/21,04/21,SummerDesignDay,1,N/A,N/A,N/A,N/A,N/A,N/A,Clark and Allen
Environment:Daylight Saving,No,SizingPeriod:DesignDay
Environment:Design Day Data,11.40,5.40,DefaultMultipliers,Wetbulb,8.00,{C},100917,320,5.0,0.00,No,No
Environment:Design Day Misc,111,1135.8,0.1796,9.6924E-002,1.0,1.11,11.6,ASHRAETau
Environment,KODIAK AUGUST .4% CONDNS DB=>MCWB,SizingPeriod:DesignDay,08/21,08/21,SummerDesignDay,1,N/A,N/A,N/A,N/A,N/A,N/A,Clark and Allen
Environment:Daylight Saving,No,SizingPeriod:DesignDay
Environment:Design Day Data,22.60,6.30,DefaultMultipliers,Wetbulb,16.00,{C},100917,320,5.0,0.00,No,No
Environment:Design Day Misc,233,1106.3,0.2000,0.1216,1.0,-3.33,12.4,ASHRAETau
Environment,KODIAK AUGUST .4% CONDNS WB=>MCDB,SizingPeriod:DesignDay,08/21,08/21,SummerDesignDay,1,N/A,N/A,N/A,N/A,N/A,N/A,Clark and Allen
Environment:Daylight Saving,No,SizingPeriod:DesignDay
Environment:Design Day Data,21.40,6.30,DefaultMultipliers,Wetbulb,16.90,{C},100917,320,5.0,0.00,No,No
Environment:Design Day Misc,233,1106.3,0.2000,0.1216,1.0,-3.33,12.4,ASHRAETau
Environment,KODIAK DECEMBER .4% CONDNS DB=>MCWB,SizingPeriod:DesignDay,12/21,12/21,SummerDesignDay,1,N/A,N/A,N/A,N/A,N/A,N/A,Clark and Allen
Environment:Daylight Saving,No,SizingPeriod:DesignDay
Environment:Design Day Data,6.90,5.10,DefaultMultipliers,Wetbulb,5.60,{C},100917,320,5.0,0.00,No,No
Environment:Design Day Misc,355,1232.8,0.1424,5.7719E-002,1.0,2.45,-23.5,ASHRAETau
Environment,KODIAK DECEMBER .4% CONDNS WB=>MCDB,SizingPeriod:DesignDay,12/21,12/21,SummerDesignDay,1,N/A,N/A,N/A,N/A,N/A,N/A,Clark and Allen
Environment:Daylight Saving,No,SizingPeriod:DesignDay
Environment:Design Day Data,6.50,5.10,DefaultMultipliers,Wetbulb,6.20,{C},100917,320,5.0,0.00,No,No
Environment:Design Day Misc,355,1232.8,0.1424,5.7719E-002,1.0,2.45,-23.5,ASHRAETau
Environment,KODIAK FEBRUARY .4% CONDNS DB=>MCWB,SizingPeriod:DesignDay,02/21,02/21,SummerDesignDay,1,N/A,N/A,N/A,N/A,N/A,N/A,Clark and Allen
Environment:Daylight Saving,No,SizingPeriod:DesignDay
Environment:Design Day Data,6.90,4.90,DefaultMultipliers,Wetbulb,4.60,{C},100917,320,5.0,0.00,No,No
Environment:Design Day Misc, 52,1214.6,0.1445,6.0579E-002,1.0,-13.80,-10.8,ASHRAETau
Environment,KODIAK FEBRUARY .4% CONDNS WB=>MCDB,SizingPeriod:DesignDay,02/21,02/21,SummerDesignDay,1,N/A,N/A,N/A,N/A,N/A,N/A,Clark and Allen
Environment:Daylight Saving,No,SizingPeriod:DesignDay
Environment:Design Day Data,6.10,4.90,DefaultMultipliers,Wetbulb,5.50,{C},100917,320,5.0,0.00,No,No
Environment:Design Day Misc, 52,1214.6,0.1445,6.0579E-002,1.0,-13.80,-10.8,ASHRAETau
Environment,KODIAK JANUARY .4% CONDNS DB=>MCWB,SizingPeriod:DesignDay,01/21,01/21,SummerDesignDay,1,N/A,N/A,N/A,N/A,N/A,N/A,Clark and Allen
Environment:Daylight Saving,No,SizingPeriod:DesignDay
Environment:Design Day Data,6.80,4.70,DefaultMultipliers,Wetbulb,4.00,{C},100917,320,5.0,0.00,No,No
Environment:Design Day Misc, 21,1229.0,0.1415,5.7310E-002,1.0,-11.15,-20.1,ASHRAETau
Environment,KODIAK JANUARY .4% CONDNS WB=>MCDB,SizingPeriod:DesignDay,01/21,01/21,SummerDesignDay,1,N/A,N/A,N/A,N/A,N/A,N/A,Clark and Allen
Environment:Daylight Saving,No,SizingPeriod:DesignDay
Environment:Design Day Data,5.70,4.70,DefaultMultipliers,Wetbulb,5.50,{C},100917,320,5.0,0.00,No,No
Environment:Design Day Misc, 21,1229.0,0.1415,5.7310E-002,1.0,-11.15,-20.1,ASHRAETau
Environment,KODIAK JULY .4% CONDNS DB=>MCWB,SizingPeriod:DesignDay,07/21,07/21,SummerDesignDay,1,N/A,N/A,N/A,N/A,N/A,N/A,Clark and Allen
Environment:Daylight Saving,No,SizingPeriod:DesignDay
Environment:Design Day Data,24.20,5.50,DefaultMultipliers,Wetbulb,16.20,{C},100917,320,5.0,0.00,No,No
Environment:Design Day Misc,202,1084.4,0.2082,0.1365,1.0,-6.23,20.6,ASHRAETau
Environment,KODIAK JULY .4% CONDNS WB=>MCDB,SizingPeriod:DesignDay,07/21,07/21,SummerDesignDay,1,N/A,N/A,N/A,N/A,N/A,N/A,Clark and Allen
Environment:Daylight Saving,No,SizingPeriod:DesignDay
Environment:Design Day Data,22.80,5.50,DefaultMultipliers,Wetbulb,16.60,{C},100917,320,5.0,0.00,No,No
Environment:Design Day Misc,202,1084.4,0.2082,0.1365,1.0,-6.23,20.6,ASHRAETau
Environment,KODIAK JUNE .4% CONDNS DB=>MCWB,SizingPeriod:DesignDay,06/21,06/21,SummerDesignDay,1,N/A,N/A,N/A,N/A,N/A,N/A,Clark and Allen
Environment:Daylight Saving,No,SizingPeriod:DesignDay
Environment:Design Day Data,22.30,5.40,DefaultMultipliers,Wetbulb,13.80,{C},100917,320,5.0,0.00,No,No
Environment:Design Day Misc,172,1088.0,0.2039,0.1335,1.0,-1.34,23.4,ASHRAETau
Environment,KODIAK JUNE .4% CONDNS WB=>MCDB,SizingPeriod:DesignDay,06/21,06/21,SummerDesignDay,1,N/A,N/A,N/A,N/A,N/A,N/A,Clark and Allen
Environment:Daylight Saving,No,SizingPeriod:DesignDay
Environment:Design Day Data,20.30,5.40,DefaultMultipliers,Wetbulb,14.70,{C},100917,320,5.0,0.00,No,No
Environment:Design Day Misc,172,1088.0,0.2039,0.1335,1.0,-1.34,23.4,ASHRAETau
Environment,KODIAK MARCH .4% CONDNS DB=>MCWB,SizingPeriod:DesignDay,03/21,03/21,SummerDesignDay,1,N/A,N/A,N/A,N/A,N/A,N/A,Clark and Allen
Environment:Daylight Saving,No,SizingPeriod:DesignDay
Environment:Design Day Data,8.30,5.50,DefaultMultipliers,Wetbulb,3.90,{C},100917,320,5.0,0.00,No,No
Environment:Design Day Misc, 80,1184.3,0.1559,7.0716E-002,1.0,-7.51,-4.2E-002,ASHRAETau
Environment,KODIAK MARCH .4% CONDNS WB=>MCDB,SizingPeriod:DesignDay,03/21,03/21,SummerDesignDay,1,N/A,N/A,N/A,N/A,N/A,N/A,Clark and Allen
Environment:Daylight Saving,No,SizingPeriod:DesignDay
Environment:Design Day Data,6.30,5.50,DefaultMultipliers,Wetbulb,5.20,{C},100917,320,5.0,0.00,No,No
Environment:Design Day Misc, 80,1184.3,0.1559,7.0716E-002,1.0,-7.51,-4.2E-002,ASHRAETau
Environment,KODIAK MAY .4% CONDNS DB=>MCWB,SizingPeriod:DesignDay,05/21,05/21,SummerDesignDay,1,N/A,N/A,N/A,N/A,N/A,N/A,Clark and Allen
Environment:Daylight Saving,No,SizingPeriod:DesignDay
Environment:Design Day Data,18.80,5.90,DefaultMultipliers,Wetbulb,10.50,{C},100917,320,5.0,0.00,No,No
Environment:Design Day Misc,141,1102.7,0.1968,0.1213,1.0,3.61,20.0,ASHRAETau
Environment,KODIAK MAY .4% CONDNS WB=>MCDB,SizingPeriod:DesignDay,05/21,05/21,SummerDesignDay,1,N/A,N/A,N/A,N/A,N/A,N/A,Clark and Allen
Environment:Daylight Saving,No,SizingPeriod:DesignDay
Environment:Design Day Data,17.00,5.90,DefaultMultipliers,Wetbulb,11.20,{C},100917,320,5.0,0.00,No,No
Environment:Design Day Misc,141,1102.7,0.1968,0.1213,1.0,3.61,20.0,ASHRAETau
Environment,KODIAK NOVEMBER .4% CONDNS DB=>MCWB,SizingPeriod:DesignDay,11/21,11/21,SummerDesignDay,1,N/A,N/A,N/A,N/A,N/A,N/A,Clark and Allen
Environment:Daylight Saving,No,SizingPeriod:DesignDay
Environment:Design Day Data,9.40,5.30,DefaultMultipliers,Wetbulb,7.30,{C},100917,320,5.0,0.00,No,No
Environment:Design Day Misc,325,1220.2,0.1488,6.4032E-002,1.0,14.25,-19.7,ASHRAETau
Environment,KODIAK NOVEMBER .4% CONDNS WB=>MCDB,SizingPeriod:DesignDay,11/21,11/21,SummerDesignDay,1,N/A,N/A,N/A,N/A,N/A,N/A,Clark and Allen
Environment:Daylight Saving,No,SizingPeriod:DesignDay
Environment:Design Day Data,8.70,5.30,DefaultMultipliers,Wetbulb,8.20,{C},100917,320,5.0,0.00,No,No
Environment:Design Day Misc,325,1220.2,0.1488,6.4032E-002,1.0,14.25,-19.7,ASHRAETau
Environment,KODIAK OCTOBER .4% CONDNS DB=>MCWB,SizingPeriod:DesignDay,10/21,10/21,SummerDesignDay,1,N/A,N/A,N/A,N/A,N/A,N/A,Clark and Allen
Environment:Daylight Saving,No,SizingPeriod:DesignDay
Environment:Design Day Data,12.60,6.20,DefaultMultipliers,Wetbulb,9.40,{C},100917,320,5.0,0.00,No,No
Environment:Design Day Misc,294,1191.2,0.1597,7.3069E-002,1.0,15.18,-10.4,ASHRAETau
Environment,KODIAK OCTOBER .4% CONDNS WB=>MCDB,SizingPeriod:DesignDay,10/21,10/21,SummerDesignDay,1,N/A,N/A,N/A,N/A,N/A,N/A,Clark and Allen
Environment:Daylight Saving,No,SizingPeriod:DesignDay
Environment:Design Day Data,11.30,6.20,DefaultMultipliers,Wetbulb,10.70,{C},100917,320,5.0,0.00,No,No
Environment:Design Day Misc,294,1191.2,0.1597,7.3069E-002,1.0,15.18,-10.4,ASHRAETau
Environment,KODIAK SEPTEMBER .4% CONDNS DB=>MCWB,SizingPeriod:DesignDay,09/21,09/21,SummerDesignDay,1,N/A,N/A,N/A,N/A,N/A,N/A,Clark and Allen
Environment:Daylight Saving,No,SizingPeriod:DesignDay
Environment:Design Day Data,18.00,6.40,DefaultMultipliers,Wetbulb,12.50,{C},100917,320,5.0,0.00,No,No
Environment:Design Day Misc,264,1151.1,0.1777,9.2179E-002,1.0,6.63,1.0,ASHRAETau
Environment,KODIAK SEPTEMBER .4% CONDNS WB=>MCDB,SizingPeriod:DesignDay,09/21,09/21,SummerDesignDay,1,N/A,N/A,N/A,N/A,N/A,N/A,Clark and Allen
Environment:Daylight Saving,No,SizingPeriod:DesignDay
Environment:Design Day Data,16.20,6.40,DefaultMultipliers,Wetbulb,13.80,{C},100917,320,5.0,0.00,No,No
Environment:Design Day Misc,264,1151.1,0.1777,9.2179E-002,1.0,6.63,1.0,ASHRAETau
Environment,KODIAK ANN CLG .4% CONDNS DB=>MWB HVAC Sizing Pass 1,SizingPeriod:DesignDay,08/21,08/21,SummerDesignDay,1,N/A,N/A,N/A,N/A,N/A,N/A,Clark and Allen
Environment:Daylight Saving,No,SizingPeriod:DesignDay
Environment:Design Day Data,20.30,6.30,DefaultMultipliers,Wetbulb,14.10,{C},100917,320,5.0,0.00,No,No
Environment:Design Day Misc,233,1106.3,0.2000,0.1216,1.0,-3.33,12.4,ASHRAETau
Environment,KODIAK ANN CLG .4% CONDNS WB=>MDB HVAC Sizing Pass 1,SizingPeriod:DesignDay,08/21,08/21,SummerDesignDay,1,N/A,N/A,N/A,N/A,N/A,N/A,Clark and Allen
Environment:Daylight Saving,No,SizingPeriod:DesignDay
Environment:Design Day Data,18.90,6.30,DefaultMultipliers,Wetbulb,15.00,{C},100917,320,5.0,0.00,No,No
Environment:Design Day Misc,233,1106.3,0.2000,0.1216,1.0,-3.33,12.4,ASHRAETau
Environment,KODIAK ANN HTG 99.6% CONDNS DB HVAC Sizing Pass 1,SizingPeriod:DesignDay,01/21,01/21,WinterDesignDay,1,N/A,N/A,N/A,N/A,N/A,N/A,Clark and Allen
Environment:Daylight Saving,No,SizingPeriod:DesignDay
Environment:Design Day Data,-12.80,0.00,DefaultMultipliers,Wetbulb,-12.80,{C},100917,290,5.6,0.00,No,No
Environment:Design Day Misc, 21,1229.0,0.1415,5.7310E-002,1.0,-11.15,-20.1,ASHRAEClearSky
Environment,KODIAK APRIL .4% CONDNS DB=>MCWB HVAC Sizing Pass 1,SizingPeriod:DesignDay,04/21,04/21,SummerDesignDay,1,N/A,N/A,N/A,N/A,N/A,N/A,Clark and Allen
Environment:Daylight Saving,No,SizingPeriod:DesignDay
Environment:Design Day Data,12.90,5.40,DefaultMultipliers,Wetbulb,7.00,{C},100917,320,5.0,0.00,No,No
Environment:Design Day Misc,111,1135.8,0.1796,9.6924E-002,1.0,1.11,11.6,ASHRAETau
Environment,KODIAK APRIL .4% CONDNS WB=>MCDB HVAC Sizing Pass 1,SizingPeriod:DesignDay,04/21,04/21,SummerDesignDay,1,N/A,N/A,N/A,N/A,N/A,N/A,Clark and Allen
Environment:Daylight Saving,No,SizingPeriod:DesignDay
Environment:Design Day Data,11.40,5.40,DefaultMultipliers,Wetbulb,8.00,{C},100917,320,5.0,0.00,No,No
Environment:Design Day Misc,111,1135.8,0.1796,9.6924E-002,1.0,1.11,11.6,ASHRAETau
Environment,KODIAK AUGUST .4% CONDNS DB=>MCWB HVAC Sizing Pass 1,SizingPeriod:DesignDay,08/21,08/21,SummerDesignDay,1,N/A,N/A,N/A,N/A,N/A,N/A,Clark and Allen
Environment:Daylight Saving,No,SizingPeriod:DesignDay
Environment:Design Day Data,22.60,6.30,DefaultMultipliers,Wetbulb,16.00,{C},100917,320,5.0,0.00,No,No
Environment:Design Day Misc,233,1106.3,0.2000,0.1216,1.0,-3.33,12.4,ASHRAETau
Environment,KODIAK AUGUST .4% CONDNS WB=>MCDB HVAC Sizing Pass 1,SizingPeriod:DesignDay,08/21,08/21,SummerDesignDay,1,N/A,N/A,N/A,N/A,N/A,N/A,Clark and Allen
Environment:Daylight Saving,No,SizingPeriod:DesignDay
Environment:Design Day Data,21.40,6.30,DefaultMultipliers,Wetbulb,16.90,{C},100917,320,5.0,0.00,No,No
Environment:Design Day Misc,233,1106.3,0.2000,0.1216,1.0,-3.33,12.4,ASHRAETau
Environment,KODIAK DECEMBER .4% CONDNS DB=>MCWB HVAC Sizing Pass 1,SizingPeriod:DesignDay,12/21,12/21,SummerDesignDay,1,N/A,N/A,N/A,N/A,N/A,N/A,Clark and Allen
Environment:Daylight Saving,No,SizingPeriod:DesignDay
Environment:Design Day Data,6.90,5.10,DefaultMultipliers,Wetbulb,5.60,{C},100917,320,5.0,0.00,No,No
Environment:Design Day Misc,355,1232.8,0.1424,5.7719E-002,1.0,2.45,-23.5,ASHRAETau
Environment,KODIAK DECEMBER .4% CONDNS WB=>MCDB HVAC Sizing Pass 1,SizingPeriod:DesignDay,12/21,12/21,SummerDesignDay,1,N/A,N/A,N/A,N/A,N/A,N/A,Clark and Allen
Environment:Daylight Saving,No,SizingPeriod:DesignDay
Environment:Design Day Data,6.50,5.10,DefaultMultipliers,Wetbulb,6.20,{C},100917,320,5.0,0.00,No,No
Environment:Design Day Misc,355,1232.8,0.1424,5.7719E-002,1.0,2.45,-23.5,ASHRAETau
[...]
Environment:Design Day Data,24.20,5.50,DefaultMultipliers,Wetbulb,16.20,{C},100917,320,5.0,0.00,No,No
Environment:Design Day Misc,202,1084.4,0.2082,0.1365,1.0,-6.23,20.6,ASHRAETau
Environment:WarmupDays,  6
 Warmup Convergence Information,ZONE WAREHOUSE BULK  - STORY GROUND,SizingPeriod: KODIAK JULY .4% CONDNS DB=>MCWB,4.4250936632E-002,3.6255834901E-002,Pass,Pass,0.0000000000,0.0000000000,Pass,Pass
 Warmup Convergence Information,ZONE WAREHOUSE FINE  - STORY GROUND,SizingPeriod: KODIAK JULY .4% CONDNS DB=>MCWB,3.6942571691E-002,2.0952206924E-002,Pass,Pass,0.1190935455,0.3597256799,Pass,Pass
 Warmup Convergence Information,ZONE WAREHOUSE OFFICE  - STORY GROUND,SizingPeriod: KODIAK JULY .4% CONDNS DB=>MCWB,6.0129382782E-002,0.2224010905,Pass,Pass,0.1181422809,0.6126453319,Pass,Pass
Environment,KODIAK JULY .4% CONDNS WB=>MCDB,SizingPeriod:DesignDay,07/21,07/21,SummerDesignDay,1,N/A,N/A,N/A,N/A,N/A,N/A,Clark and Allen
Environment:Daylight Saving,No,SizingPeriod:DesignDay
Environment:Design Day Data,22.80,5.50,DefaultMultipliers,Wetbulb,16.60,{C},100917,320,5.0,0.00,No,No
Environment:Design Day Misc,202,1084.4,0.2082,0.1365,1.0,-6.23,20.6,ASHRAETau
Environment:WarmupDays,  6
 Warmup Convergence Information,ZONE WAREHOUSE BULK  - STORY GROUND,SizingPeriod: KODIAK JULY .4% CONDNS WB=>MCDB,4.5414983613E-002,3.6925088949E-002,Pass,Pass,0.0000000000,0.0000000000,Pass,Pass
 Warmup Convergence Information,ZONE WAREHOUSE FINE  - STORY GROUND,SizingPeriod: KODIAK JULY .4% CONDNS WB=>MCDB,4.0602648798E-002,1.8958301775E-002,Pass,Pass,0.2162466546,0.8564413086,Pass,Pass
 Warmup Convergence Information,ZONE WAREHOUSE OFFICE  - STORY GROUND,SizingPeriod: KODIAK JULY .4% CONDNS WB=>MCDB,4.8281918798E-002,0.1801987610,Pass,Pass,9.3696799162E-002,0.5261526785,Pass,Pass
Environment,KODIAK JUNE .4% CONDNS DB=>MCWB,SizingPeriod:DesignDay,06/21,06/21,SummerDesignDay,1,N/A,N/A,N/A,N/A,N/A,N/A,Clark and Allen
Environment:Daylight Saving,No,SizingPeriod:DesignDay
Environment:Design Day Data,22.30,5.40,DefaultMultipliers,Wetbulb,13.80,{C},100917,320,5.0,0.00,No,No
Environment:Design Day Misc,172,1088.0,0.2039,0.1335,1.0,-1.34,23.4,ASHRAETau
Environment:WarmupDays,  6
 Warmup Convergence Information,ZONE WAREHOUSE BULK  - STORY GROUND,SizingPeriod: KODIAK JUNE .4% CONDNS DB=>MCWB,4.6223921313E-002,3.6347189556E-002,Pass,Pass,0.0000000000,0.0000000000,Pass,Pass
 Warmup Convergence Information,ZONE WAREHOUSE FINE  - STORY GROUND,SizingPeriod: KODIAK JUNE .4% CONDNS DB=>MCWB,4.2462736081E-002,1.9297167168E-002,Pass,Pass,1.3642833681E-002,1.1278083343E-002,Pass,Pass
 Warmup Convergence Information,ZONE WAREHOUSE OFFICE  - STORY GROUND,SizingPeriod: KODIAK JUNE .4% CONDNS DB=>MCWB,3.8048760620E-002,6.9972486680E-002,Pass,Pass,5.8811584851E-002,0.1720428796,Pass,Pass
Environment,KODIAK JUNE .4% CONDNS WB=>MCDB,SizingPeriod:DesignDay,06/21,06/21,SummerDesignDay,1,N/A,N/A,N/A,N/A,N/A,N/A,Clark and Allen
Environment:Daylight Saving,No,SizingPeriod:DesignDay
Environment:Design Day Data,20.30,5.40,DefaultMultipliers,Wetbulb,14.70,{C},100917,320,5.0,0.00,No,No
Environment:Design Day Misc,172,1088.0,0.2039,0.1335,1.0,-1.34,23.4,ASHRAETau
Environment:WarmupDays,  6
 Warmup Convergence Information,ZONE WAREHOUSE BULK  - STORY GROUND,SizingPeriod: KODIAK JUNE .4% CONDNS WB=>MCDB,4.6884049139E-002,3.6227553922E-002,Pass,Pass,0.0000000000,0.0000000000,Pass,Pass
 Warmup Convergence Information,ZONE WAREHOUSE FINE  - STORY GROUND,SizingPeriod: KODIAK JUNE .4% CONDNS WB=>MCDB,4.3951103419E-002,1.9880684789E-002,Pass,Pass,1.8024692528E-002,1.4498903668E-002,Pass,Pass
 Warmup Convergence Information,ZONE WAREHOUSE OFFICE  - STORY GROUND,SizingPeriod: KODIAK JUNE .4% CONDNS WB=>MCDB,4.0607561257E-002,3.9216037412E-002,Pass,Pass,7.6085413493E-002,0.2621494572,Pass,Pass
Environment,KODIAK MARCH .4% CONDNS DB=>MCWB,SizingPeriod:DesignDay,03/21,03/21,SummerDesignDay,1,N/A,N/A,N/A,N/A,N/A,N/A,Clark and Allen
Environment:Daylight Saving,No,SizingPeriod:DesignDay
Environment:Design Day Data,8.30,5.50,DefaultMultipliers,Wetbulb,3.90,{C},100917,320,5.0,0.00,No,No
Environment:Design Day Misc, 80,1184.3,0.1559,7.0716E-002,1.0,-7.51,-4.2E-002,ASHRAETau
Environment:WarmupDays,  9
 Warmup Convergence Information,ZONE WAREHOUSE BULK  - STORY GROUND,SizingPeriod: KODIAK MARCH .4% CONDNS DB=>MCWB,2.9602542157E-002,4.0043873072E-002,Pass,Pass,0.1474732302,1.3796985451,Pass,Pass
 Warmup Convergence Information,ZONE WAREHOUSE FINE  - STORY GROUND,SizingPeriod: KODIAK MARCH .4% CONDNS DB=>MCWB,4.9749270136E-010,4.1674851672E-009,Pass,Pass,1.8440752941E-002,1.3840525247E-002,Pass,Pass
 Warmup Convergence Information,ZONE WAREHOUSE OFFICE  - STORY GROUND,SizingPeriod: KODIAK MARCH .4% CONDNS DB=>MCWB,7.5000000000E-002,0.3628868453,Pass,Pass,0.1451328906,1.2831646649,Pass,Pass
Environment,KODIAK MARCH .4% CONDNS WB=>MCDB,SizingPeriod:DesignDay,03/21,03/21,SummerDesignDay,1,N/A,N/A,N/A,N/A,N/A,N/A,Clark and Allen
Environment:Daylight Saving,No,SizingPeriod:DesignDay
Environment:Design Day Data,6.30,5.50,DefaultMultipliers,Wetbulb,5.20,{C},100917,320,5.0,0.00,No,No
Environment:Design Day Misc, 80,1184.3,0.1559,7.0716E-002,1.0,-7.51,-4.2E-002,ASHRAETau
Environment:WarmupDays,  8
 Warmup Convergence Information,ZONE WAREHOUSE BULK  - STORY GROUND,SizingPeriod: KODIAK MARCH .4% CONDNS WB=>MCDB,2.1031175292E-002,3.6327812967E-002,Pass,Pass,6.5336255877E-002,0.3086457504,Pass,Pass
 Warmup Convergence Information,ZONE WAREHOUSE FINE  - STORY GROUND,SizingPeriod: KODIAK MARCH .4% CONDNS WB=>MCDB,4.4776219769E-011,3.7716605756E-010,Pass,Pass,1.5242178476E-002,1.1595062863E-002,Pass,Pass
 Warmup Convergence Information,ZONE WAREHOUSE OFFICE  - STORY GROUND,SizingPeriod: KODIAK MARCH .4% CONDNS WB=>MCDB,7.5000000000E-002,0.3755088409,Pass,Pass,0.1699700467,1.5870648738,Pass,Pass
Environment,KODIAK MAY .4% CONDNS DB=>MCWB,SizingPeriod:DesignDay,05/21,05/21,SummerDesignDay,1,N/A,N/A,N/A,N/A,N/A,N/A,Clark and Allen
Environment:Daylight Saving,No,SizingPeriod:DesignDay
Environment:Design Day Data,18.80,5.90,DefaultMultipliers,Wetbulb,10.50,{C},100917,320,5.0,0.00,No,No
Environment:Design Day Misc,141,1102.7,0.1968,0.1213,1.0,3.61,20.0,ASHRAETau
Environment:WarmupDays,  8
 Warmup Convergence Information,ZONE WAREHOUSE BULK  - STORY GROUND,SizingPeriod: KODIAK MAY .4% CONDNS DB=>MCWB,4.8935966188E-002,3.7139274001E-002,Pass,Pass,0.0000000000,0.0000000000,Pass,Pass
 Warmup Convergence Information,ZONE WAREHOUSE FINE  - STORY GROUND,SizingPeriod: KODIAK MAY .4% CONDNS DB=>MCWB,4.7732355720E-002,2.2756792190E-002,Pass,Pass,1.3497544810E-002,1.4655716200E-002,Pass,Pass
 Warmup Convergence Information,ZONE WAREHOUSE OFFICE  - STORY GROUND,SizingPeriod: KODIAK MAY .4% CONDNS DB=>MCWB,6.4845726556E-002,0.1164690745,Pass,Pass,3.7864189762E-002,0.1034696151,Pass,Pass
Environment,KODIAK MAY .4% CONDNS WB=>MCDB,SizingPeriod:DesignDay,05/21,05/21,SummerDesignDay,1,N/A,N/A,N/A,N/A,N/A,N/A,Clark and Allen
Environment:Daylight Saving,No,SizingPeriod:DesignDay
Environment:Design Day Data,17.00,5.90,DefaultMultipliers,Wetbulb,11.20,{C},100917,320,5.0,0.00,No,No
Environment:Design Day Misc,141,1102.7,0.1968,0.1213,1.0,3.61,20.0,ASHRAETau
Environment:WarmupDays,  7
 Warmup Convergence Information,ZONE WAREHOUSE BULK  - STORY GROUND,SizingPeriod: KODIAK MAY .4% CONDNS WB=>MCDB,4.9693597114E-002,3.7553659391E-002,Pass,Pass,0.0000000000,0.0000000000,Pass,Pass
 Warmup Convergence Information,ZONE WAREHOUSE FINE  - STORY GROUND,SizingPeriod: KODIAK MAY .4% CONDNS WB=>MCDB,4.8615078418E-002,2.3866606268E-002,Pass,Pass,1.7614423738E-002,2.0531777000E-002,Pass,Pass
 Warmup Convergence Information,ZONE WAREHOUSE OFFICE  - STORY GROUND,SizingPeriod: KODIAK MAY .4% CONDNS WB=>MCDB,6.6585023294E-002,0.1989165763,Pass,Pass,4.7893460377E-002,0.1036396270,Pass,Pass
Environment,KODIAK NOVEMBER .4% CONDNS DB=>MCWB,SizingPeriod:DesignDay,11/21,11/21,SummerDesignDay,1,N/A,N/A,N/A,N/A,N/A,N/A,Clark and Allen
Environment:Daylight Saving,No,SizingPeriod:DesignDay
Environment:Design Day Data,9.40,5.30,DefaultMultipliers,Wetbulb,7.30,{C},100917,320,5.0,0.00,No,No
Environment:Design Day Misc,325,1220.2,0.1488,6.4032E-002,1.0,14.25,-19.7,ASHRAETau
Environment:WarmupDays,  7
 Warmup Convergence Information,ZONE WAREHOUSE BULK  - STORY GROUND,SizingPeriod: KODIAK NOVEMBER .4% CONDNS DB=>MCWB,3.5067722142E-002,3.1989063422E-002,Pass,Pass,0.0000000000,0.0000000000,Pass,Pass
 Warmup Convergence Information,ZONE WAREHOUSE FINE  - STORY GROUND,SizingPeriod: KODIAK NOVEMBER .4% CONDNS DB=>MCWB,8.4459138544E-003,1.4665067478E-002,Pass,Pass,9.6899902360E-002,0.2583184909,Pass,Pass
 Warmup Convergence Information,ZONE WAREHOUSE OFFICE  - STORY GROUND,SizingPeriod: KODIAK NOVEMBER .4% CONDNS DB=>MCWB,7.5545617083E-002,0.3211928251,Pass,Pass,0.1167078995,0.9123250632,Pass,Pass
Environment,KODIAK NOVEMBER .4% CONDNS WB=>MCDB,SizingPeriod:DesignDay,11/21,11/21,SummerDesignDay,1,N/A,N/A,N/A,N/A,N/A,N/A,Clark and Allen
Environment:Daylight Saving,No,SizingPeriod:DesignDay
Environment:Design Day Data,8.70,5.30,DefaultMultipliers,Wetbulb,8.20,{C},100917,320,5.0,0.00,No,No
Environment:Design Day Misc,325,1220.2,0.1488,6.4032E-002,1.0,14.25,-19.7,ASHRAETau
Environment:WarmupDays,  7
 Warmup Convergence Information,ZONE WAREHOUSE BULK  - STORY GROUND,SizingPeriod: KODIAK NOVEMBER .4% CONDNS WB=>MCDB,3.5237740204E-002,3.2135506883E-002,Pass,Pass,0.0000000000,0.0000000000,Pass,Pass
 Warmup Convergence Information,ZONE WAREHOUSE FINE  - STORY GROUND,SizingPeriod: KODIAK NOVEMBER .4% CONDNS WB=>MCDB,4.2066131186E-003,1.0209314323E-002,Pass,Pass,7.2817728067E-002,0.1401774050,Pass,Pass
 Warmup Convergence Information,ZONE WAREHOUSE OFFICE  - STORY GROUND,SizingPeriod: KODIAK NOVEMBER .4% CONDNS WB=>MCDB,7.5170385868E-002,0.3274339557,Pass,Pass,0.1243099629,0.9953187051,Pass,Pass
Environment,KODIAK OCTOBER .4% CONDNS DB=>MCWB,SizingPeriod:DesignDay,10/21,10/21,SummerDesignDay,1,N/A,N/A,N/A,N/A,N/A,N/A,Clark and Allen
Environment:Daylight Saving,No,SizingPeriod:DesignDay
Environment:Design Day Data,12.60,6.20,DefaultMultipliers,Wetbulb,9.40,{C},100917,320,5.0,0.00,No,No
Environment:Design Day Misc,294,1191.2,0.1597,7.3069E-002,1.0,15.18,-10.4,ASHRAETau
Environment:WarmupDays,  7
 Warmup Convergence Information,ZONE WAREHOUSE BULK  - STORY GROUND,SizingPeriod: KODIAK OCTOBER .4% CONDNS DB=>MCWB,4.1366672655E-002,3.8360723899E-002,Pass,Pass,0.0000000000,0.0000000000,Pass,Pass
 Warmup Convergence Information,ZONE WAREHOUSE FINE  - STORY GROUND,SizingPeriod: KODIAK OCTOBER .4% CONDNS DB=>MCWB,4.0533216676E-002,2.4190085653E-002,Pass,Pass,2.6215337640E-002,2.2720886315E-002,Pass,Pass
 Warmup Convergence Information,ZONE WAREHOUSE OFFICE  - STORY GROUND,SizingPeriod: KODIAK OCTOBER .4% CONDNS DB=>MCWB,6.0969726093E-002,0.2035977570,Pass,Pass,6.7966744101E-002,0.1815470650,Pass,Pass
Environment,KODIAK OCTOBER .4% CONDNS WB=>MCDB,SizingPeriod:DesignDay,10/21,10/21,SummerDesignDay,1,N/A,N/A,N/A,N/A,N/A,N/A,Clark and Allen
Environment:Daylight Saving,No,SizingPeriod:DesignDay
Environment:Design Day Data,11.30,6.20,DefaultMultipliers,Wetbulb,10.70,{C},100917,320,5.0,0.00,No,No
Environment:Design Day Misc,294,1191.2,0.1597,7.3069E-002,1.0,15.18,-10.4,ASHRAETau
Environment:WarmupDays,  6
 Warmup Convergence Information,ZONE WAREHOUSE BULK  - STORY GROUND,SizingPeriod: KODIAK OCTOBER .4% CONDNS WB=>MCDB,4.1630104071E-002,3.7908204577E-002,Pass,Pass,0.0000000000,0.0000000000,Pass,Pass
 Warmup Convergence Information,ZONE WAREHOUSE FINE  - STORY GROUND,SizingPeriod: KODIAK OCTOBER .4% CONDNS WB=>MCDB,3.9789914524E-002,2.5784071553E-002,Pass,Pass,0.1295267772,0.4140836638,Pass,Pass
 Warmup Convergence Information,ZONE WAREHOUSE OFFICE  - STORY GROUND,SizingPeriod: KODIAK OCTOBER .4% CONDNS WB=>MCDB,6.1669758686E-002,0.2198636766,Pass,Pass,8.5763170842E-002,0.2769935394,Pass,Pass
Environment,KODIAK SEPTEMBER .4% CONDNS DB=>MCWB,SizingPeriod:DesignDay,09/21,09/21,SummerDesignDay,1,N/A,N/A,N/A,N/A,N/A,N/A,Clark and Allen
Environment:Daylight Saving,No,SizingPeriod:DesignDay
Environment:Design Day Data,18.00,6.40,DefaultMultipliers,Wetbulb,12.50,{C},100917,320,5.0,0.00,No,No
Environment:Design Day Misc,264,1151.1,0.1777,9.2179E-002,1.0,6.63,1.0,ASHRAETau
Environment:WarmupDays,  6
 Warmup Convergence Information,ZONE WAREHOUSE BULK  - STORY GROUND,SizingPeriod: KODIAK SEPTEMBER .4% CONDNS DB=>MCWB,4.5185039522E-002,4.1093986264E-002,Pass,Pass,0.0000000000,0.0000000000,Pass,Pass
 Warmup Convergence Information,ZONE WAREHOUSE FINE  - STORY GROUND,SizingPeriod: KODIAK SEPTEMBER .4% CONDNS DB=>MCWB,4.3533437786E-002,2.6242206806E-002,Pass,Pass,6.2703040605E-002,7.9896461032E-002,Pass,Pass
 Warmup Convergence Information,ZONE WAREHOUSE OFFICE  - STORY GROUND,SizingPeriod: KODIAK SEPTEMBER .4% CONDNS DB=>MCWB,3.7016067151E-002,6.0189264895E-002,Pass,Pass,5.0433998892E-002,0.1411124714,Pass,Pass
Environment,KODIAK SEPTEMBER .4% CONDNS WB=>MCDB,SizingPeriod:DesignDay,09/21,09/21,SummerDesignDay,1,N/A,N/A,N/A,N/A,N/A,N/A,Clark and Allen
Environment:Daylight Saving,No,SizingPeriod:DesignDay
Environment:Design Day Data,16.20,6.40,DefaultMultipliers,Wetbulb,13.80,{C},100917,320,5.0,0.00,No,No
Environment:Design Day Misc,264,1151.1,0.1777,9.2179E-002,1.0,6.63,1.0,ASHRAETau
Environment:WarmupDays,  6
 Warmup Convergence Information,ZONE WAREHOUSE BULK  - STORY GROUND,SizingPeriod: KODIAK SEPTEMBER .4% CONDNS WB=>MCDB,4.5572871313E-002,4.0522770362E-002,Pass,Pass,0.0000000000,0.0000000000,Pass,Pass
 Warmup Convergence Information,ZONE WAREHOUSE FINE  - STORY GROUND,SizingPeriod: KODIAK SEPTEMBER .4% CONDNS WB=>MCDB,4.4737341822E-002,2.6758478304E-002,Pass,Pass,2.4130713719E-002,1.6467147059E-002,Pass,Pass
 Warmup Convergence Information,ZONE WAREHOUSE OFFICE  - STORY GROUND,SizingPeriod: KODIAK SEPTEMBER .4% CONDNS WB=>MCDB,4.3817937587E-002,4.9380650137E-002,Pass,Pass,7.9146057314E-002,0.3752342597,Pass,Pass
Environment,KODIAK ANN CLG .4% CONDNS DB=>MWB HVAC Sizing Pass 1,SizingPeriod:DesignDay,08/21,08/21,SummerDesignDay,1,N/A,N/A,N/A,N/A,N/A,N/A,Clark and Allen
Environment:Daylight Saving,No,SizingPeriod:DesignDay
Environment,KODIAK ANN CLG .4% CONDNS WB=>MDB HVAC Sizing Pass 1,SizingPeriod:DesignDay,08/21,08/21,SummerDesignDay,1,N/A,N/A,N/A,N/A,N/A,N/A,Clark and Allen
Environment:Daylight Saving,No,SizingPeriod:DesignDay
Environment,KODIAK ANN HTG 99.6% CONDNS DB HVAC Sizing Pass 1,SizingPeriod:DesignDay,01/21,01/21,WinterDesignDay,1,N/A,N/A,N/A,N/A,N/A,N/A,Clark and Allen
Environment:Daylight Saving,No,SizingPeriod:DesignDay
Environment,KODIAK APRIL .4% CONDNS DB=>MCWB HVAC Sizing Pass 1,SizingPeriod:DesignDay,04/21,04/21,SummerDesignDay,1,N/A,N/A,N/A,N/A,N/A,N/A,Clark and Allen
Environment:Daylight Saving,No,SizingPeriod:DesignDay
Environment,KODIAK APRIL .4% CONDNS WB=>MCDB HVAC Sizing Pass 1,SizingPeriod:DesignDay,04/21,04/21,SummerDesignDay,1,N/A,N/A,N/A,N/A,N/A,N/A,Clark and Allen
Environment:Daylight Saving,No,SizingPeriod:DesignDay
Environment,KODIAK AUGUST .4% CONDNS DB=>MCWB HVAC Sizing Pass 1,SizingPeriod:DesignDay,08/21,08/21,SummerDesignDay,1,N/A,N/A,N/A,N/A,N/A,N/A,Clark and Allen
Environment:Daylight Saving,No,SizingPeriod:DesignDay
Environment,KODIAK AUGUST .4% CONDNS WB=>MCDB HVAC Sizing Pass 1,SizingPeriod:DesignDay,08/21,08/21,SummerDesignDay,1,N/A,N/A,N/A,N/A,N/A,N/A,Clark and Allen
Environment:Daylight Saving,No,SizingPeriod:DesignDay
Environment,KODIAK DECEMBER .4% CONDNS DB=>MCWB HVAC Sizing Pass 1,SizingPeriod:DesignDay,12/21,12/21,SummerDesignDay,1,N/A,N/A,N/A,N/A,N/A,N/A,Clark and Allen
Environment:Daylight Saving,No,SizingPeriod:DesignDay
Environment,KODIAK DECEMBER .4% CONDNS WB=>MCDB HVAC Sizing Pass 1,SizingPeriod:DesignDay,12/21,12/21,SummerDesignDay,1,N/A,N/A,N/A,N/A,N/A,N/A,Clark and Allen
Environment:Daylight Saving,No,SizingPeriod:DesignDay
Environment,KODIAK FEBRUARY .4% CONDNS DB=>MCWB HVAC Sizing Pass 1,SizingPeriod:DesignDay,02/21,02/21,SummerDesignDay,1,N/A,N/A,N/A,N/A,N/A,N/A,Clark and Allen
Environment:Daylight Saving,No,SizingPeriod:DesignDay
Environment,KODIAK FEBRUARY .4% CONDNS WB=>MCDB HVAC Sizing Pass 1,SizingPeriod:DesignDay,02/21,02/21,SummerDesignDay,1,N/A,N/A,N/A,N/A,N/A,N/A,Clark and Allen
Environment:Daylight Saving,No,SizingPeriod:DesignDay
Environment,KODIAK JANUARY .4% CONDNS DB=>MCWB HVAC Sizing Pass 1,SizingPeriod:DesignDay,01/21,01/21,SummerDesignDay,1,N/A,N/A,N/A,N/A,N/A,N/A,Clark and Allen
Environment:Daylight Saving,No,SizingPeriod:DesignDay
Environment,KODIAK JANUARY .4% CONDNS WB=>MCDB HVAC Sizing Pass 1,SizingPeriod:DesignDay,01/21,01/21,SummerDesignDay,1,N/A,N/A,N/A,N/A,N/A,N/A,Clark and Allen
Environment:Daylight Saving,No,SizingPeriod:DesignDay
Environment,KODIAK JULY .4% CONDNS DB=>MCWB HVAC Sizing Pass 1,SizingPeriod:DesignDay,07/21,07/21,SummerDesignDay,1,N/A,N/A,N/A,N/A,N/A,N/A,Clark and Allen
Environment:Daylight Saving,No,SizingPeriod:DesignDay
Environment,KODIAK JULY .4% CONDNS WB=>MCDB HVAC Sizing Pass 1,SizingPeriod:DesignDay,07/21,07/21,SummerDesignDay,1,N/A,N/A,N/A,N/A,N/A,N/A,Clark and Allen
Environment:Daylight Saving,No,SizingPeriod:DesignDay
Environment,KODIAK JUNE .4% CONDNS DB=>MCWB HVAC Sizing Pass 1,SizingPeriod:DesignDay,06/21,06/21,SummerDesignDay,1,N/A,N/A,N/A,N/A,N/A,N/A,Clark and Allen
Environment:Daylight Saving,No,SizingPeriod:DesignDay
Environment,KODIAK JUNE .4% CONDNS WB=>MCDB HVAC Sizing Pass 1,SizingPeriod:DesignDay,06/21,06/21,SummerDesignDay,1,N/A,N/A,N/A,N/A,N/A,N/A,Clark and Allen
Environment:Daylight Saving,No,SizingPeriod:DesignDay
Environment,KODIAK MARCH .4% CONDNS DB=>MCWB HVAC Sizing Pass 1,SizingPeriod:DesignDay,03/21,03/21,SummerDesignDay,1,N/A,N/A,N/A,N/A,N/A,N/A,Clark and Allen
Environment:Daylight Saving,No,SizingPeriod:DesignDay
Environment,KODIAK MARCH .4% CONDNS WB=>MCDB HVAC Sizing Pass 1,SizingPeriod:DesignDay,03/21,03/21,SummerDesignDay,1,N/A,N/A,N/A,N/A,N/A,N/A,Clark and Allen
Environment:Daylight Saving,No,SizingPeriod:DesignDay
Environment,KODIAK MAY .4% CONDNS DB=>MCWB HVAC Sizing Pass 1,SizingPeriod:DesignDay,05/21,05/21,SummerDesignDay,1,N/A,N/A,N/A,N/A,N/A,N/A,Clark and Allen
Environment:Daylight Saving,No,SizingPeriod:DesignDay
Environment,KODIAK MAY .4% CONDNS WB=>MCDB HVAC Sizing Pass 1,SizingPeriod:DesignDay,05/21,05/21,SummerDesignDay,1,N/A,N/A,N/A,N/A,N/A,N/A,Clark and Allen
Environment:Daylight Saving,No,SizingPeriod:DesignDay
Environment,KODIAK NOVEMBER .4% CONDNS DB=>MCWB HVAC Sizing Pass 1,SizingPeriod:DesignDay,11/21,11/21,SummerDesignDay,1,N/A,N/A,N/A,N/A,N/A,N/A,Clark and Allen
Environment:Daylight Saving,No,SizingPeriod:DesignDay
Environment,KODIAK NOVEMBER .4% CONDNS WB=>MCDB HVAC Sizing Pass 1,SizingPeriod:DesignDay,11/21,11/21,SummerDesignDay,1,N/A,N/A,N/A,N/A,N/A,N/A,Clark and Allen
Environment:Daylight Saving,No,SizingPeriod:DesignDay
Environment,KODIAK OCTOBER .4% CONDNS DB=>MCWB HVAC Sizing Pass 1,SizingPeriod:DesignDay,10/21,10/21,SummerDesignDay,1,N/A,N/A,N/A,N/A,N/A,N/A,Clark and Allen
Environment:Daylight Saving,No,SizingPeriod:DesignDay
Environment,KODIAK OCTOBER .4% CONDNS WB=>MCDB HVAC Sizing Pass 1,SizingPeriod:DesignDay,10/21,10/21,SummerDesignDay,1,N/A,N/A,N/A,N/A,N/A,N/A,Clark and Allen
Environment:Daylight Saving,No,SizingPeriod:DesignDay
Environment,KODIAK SEPTEMBER .4% CONDNS DB=>MCWB HVAC Sizing Pass 1,SizingPeriod:DesignDay,09/21,09/21,SummerDesignDay,1,N/A,N/A,N/A,N/A,N/A,N/A,Clark and Allen
Environment:Daylight Saving,No,SizingPeriod:DesignDay
Environment,KODIAK SEPTEMBER .4% CONDNS WB=>MCDB HVAC Sizing Pass 1,SizingPeriod:DesignDay,09/21,09/21,SummerDesignDay,1,N/A,N/A,N/A,N/A,N/A,N/A,Clark and Allen
Environment:Daylight Saving,No,SizingPeriod:DesignDay
! <Program Control Information:Threads/Parallel Sims>, Threading Supported,Maximum Number of Threads, Env Set Threads (OMP_NUM_THREADS), EP Env Set Threads (EP_OMP_NUM_THREADS), IDF Set Threads, Number of Threads Used (Interior Radiant Exchange), Number Nominal Surfaces, Number Parallel Sims
Program Control:Threads/Parallel Sims, No,1, N/A, N/A, N/A, N/A, N/A, N/A
End of Data
